version 3
run General-0-20250704-02:11:04-20832
attr configname General
attr datetime 20250704-02:11:04
attr datetimef 20250704-021104
attr experiment General
attr inifile sim1.ini
attr iterationvars ""
attr iterationvarsd ""
attr iterationvarsf ""
attr measurement ""
attr network Sim1
attr processid 20832
attr repetition 0
attr replication #0
attr resultdir results
attr runnumber 0
attr seedset 0
config network Sim1
config **.scalar-recording true
config **.vector-recording true
config *.LD2.n 1
config *.LD2.periodicTrafficGen[*].period 0.0014s
config *.LD2.periodicTrafficGen[*].startTime 1s
config *.LD2.periodicTrafficGen[*].name "\"LD2\""
config *.LD2.periodicTrafficGen[*].payloadSize 1300B
config *.LD2.periodicTrafficGen[*].burstSize 1
config *.LD2.periodicTrafficGen[*].destAddr "\"CU\""
config *.LD2.periodicTrafficGen[*].srcAddr "\"LD2\""
config *.LD2.periodicTrafficGen[*].vlanid 1
config *.LD2.periodicTrafficGen[*].deadlineRel 0.0014s
config *.LD2.ethController.ethEncap.address "\"LD2\""
config *.LD2.ethController.etherMAC.datarate 1Gbps
config *.LD2.ethController.etherMAC.vlans [1]
config *.US2.n 1
config *.US2.periodicTrafficGen[*].period 0.1s
config *.US2.periodicTrafficGen[*].startTime 1s
config *.US2.periodicTrafficGen[*].name "\"US2\""
config *.US2.periodicTrafficGen[*].payloadSize 188B
config *.US2.periodicTrafficGen[*].burstSize 1
config *.US2.periodicTrafficGen[*].destAddr "\"CU\""
config *.US2.periodicTrafficGen[*].srcAddr "\"US2\""
config *.US2.periodicTrafficGen[*].vlanid 3
config *.US2.periodicTrafficGen[*].deadlineRel 0.1s
config *.US2.ethController.ethEncap.address "\"US2\""
config *.US2.ethController.etherMAC.datarate 1Gbps
config *.US2.ethController.etherMAC.vlans [3]
config *.S2.n 1
config *.S2.periodicTrafficGen[*].period 0s
config *.S2.periodicTrafficGen[*].startTime 0s
config *.S2.periodicTrafficGen[*].name "\"S2\""
config *.S2.periodicTrafficGen[*].payloadSize 0B
config *.S2.periodicTrafficGen[*].burstSize 0
config *.S2.periodicTrafficGen[*].destAddr "\"\""
config *.S2.periodicTrafficGen[*].srcAddr "\"S2\""
config *.S2.periodicTrafficGen[*].vlanid 2
config *.S2.periodicTrafficGen[*].deadlineRel 0s
config *.S2.ethController.ethEncap.address "\"S2\""
config *.S2.ethController.etherMAC.datarate 1Gbps
config *.S2.ethController.etherMAC.vlans [2]
config *.CU.n 1
config *.CU.periodicTrafficGen[*].period 0.01s
config *.CU.periodicTrafficGen[*].startTime 1s
config *.CU.periodicTrafficGen[*].name "\"CU\""
config *.CU.periodicTrafficGen[*].payloadSize 10500B
config *.CU.periodicTrafficGen[*].burstSize 1
config *.CU.periodicTrafficGen[*].destAddr "\"HU\""
config *.CU.periodicTrafficGen[*].srcAddr "\"CU\""
config *.CU.periodicTrafficGen[*].vlanid 4
config *.CU.periodicTrafficGen[*].deadlineRel 0.01s
config *.CU.ethController.ethEncap.address "\"CU\""
config *.CU.ethController.etherMAC.datarate 1Gbps
config *.CU.ethController.etherMAC.vlans "[4, 1, 3, 7]"
config *.TLM.n 2
config *.TLM.periodicTrafficGen[0].period 0.000625s
config *.TLM.periodicTrafficGen[0].startTime 1s
config *.TLM.periodicTrafficGen[0].name "\"TLM\""
config *.TLM.periodicTrafficGen[0].payloadSize 600B
config *.TLM.periodicTrafficGen[0].burstSize 1
config *.TLM.periodicTrafficGen[0].destAddr "\"HU\""
config *.TLM.periodicTrafficGen[0].srcAddr "\"TLM\""
config *.TLM.periodicTrafficGen[0].deadlineRel 0.000625s
config *.TLM.periodicTrafficGen[1].period 0.000625s
config *.TLM.periodicTrafficGen[1].startTime 1s
config *.TLM.periodicTrafficGen[1].name "\"TLM\""
config *.TLM.periodicTrafficGen[1].payloadSize 600B
config *.TLM.periodicTrafficGen[1].burstSize 1
config *.TLM.periodicTrafficGen[1].destAddr "\"CU\""
config *.TLM.periodicTrafficGen[1].srcAddr "\"TLM\""
config *.TLM.periodicTrafficGen[1].deadlineRel 0.000625s
config *.TLM.periodicTrafficGen[*].vlanid 7
config *.TLM.ethController.ethEncap.address "\"TLM\""
config *.TLM.ethController.etherMAC.datarate 1Gbps
config *.TLM.ethController.etherMAC.vlans [7]
config *.HU.n 1
config *.HU.periodicTrafficGen[*].period 0s
config *.HU.periodicTrafficGen[*].startTime 0s
config *.HU.periodicTrafficGen[*].name "\"HU\""
config *.HU.periodicTrafficGen[*].payloadSize 0B
config *.HU.periodicTrafficGen[*].burstSize 0
config *.HU.periodicTrafficGen[*].destAddr "\"\""
config *.HU.periodicTrafficGen[*].srcAddr "\"HU\""
config *.HU.periodicTrafficGen[*].deadlineRel 0s
config *.HU.ethController.ethEncap.address "\"HU\""
config *.HU.ethController.etherMAC.datarate 1Gbps
config *.HU.ethController.etherMAC.vlans "[4, 5, 7, 8]"
config *.RS1.n 1
config *.RS1.periodicTrafficGen[*].period 0s
config *.RS1.periodicTrafficGen[*].startTime 0s
config *.RS1.periodicTrafficGen[*].name "\"RS1\""
config *.RS1.periodicTrafficGen[*].payloadSize 0B
config *.RS1.periodicTrafficGen[*].burstSize 0
config *.RS1.periodicTrafficGen[*].destAddr "\"\""
config *.RS1.periodicTrafficGen[*].srcAddr "\"RS1\""
config *.RS1.periodicTrafficGen[*].deadlineRel 0s
config *.RS1.ethController.ethEncap.address "\"RS1\""
config *.RS1.ethController.etherMAC.datarate 1Gbps
config *.RS1.ethController.etherMAC.vlans [6]
config *.S4.n 1
config *.S4.periodicTrafficGen[*].period 0s
config *.S4.periodicTrafficGen[*].startTime 0s
config *.S4.periodicTrafficGen[*].name "\"S4\""
config *.S4.periodicTrafficGen[*].payloadSize 0B
config *.S4.periodicTrafficGen[*].burstSize 0
config *.S4.periodicTrafficGen[*].destAddr "\"\""
config *.S4.periodicTrafficGen[*].srcAddr "\"S4\""
config *.S4.periodicTrafficGen[*].deadlineRel 0s
config *.S4.ethController.ethEncap.address "\"S4\""
config *.S4.ethController.etherMAC.datarate 1Gbps
config *.S4.ethController.etherMAC.vlans [2]
config *.RC.n 1
config *.RC.periodicTrafficGen[*].period 0.03333s
config *.RC.periodicTrafficGen[*].startTime 1s
config *.RC.periodicTrafficGen[*].name "\"RC\""
config *.RC.periodicTrafficGen[*].payloadSize 178000B
config *.RC.periodicTrafficGen[*].burstSize 0
config *.RC.periodicTrafficGen[*].destAddr "\"HU\""
config *.RC.periodicTrafficGen[*].srcAddr "\"RC\""
config *.RC.periodicTrafficGen[*].vlanid 8
config *.RC.periodicTrafficGen[*].deadlineRel 0.03333s
config *.RC.ethController.ethEncap.address "\"RC\""
config *.RC.ethController.etherMAC.datarate 1Gbps
config *.RC.ethController.etherMAC.vlans [8]
config *.US3.n 1
config *.US3.periodicTrafficGen[*].period 0.1s
config *.US3.periodicTrafficGen[*].startTime 1s
config *.US3.periodicTrafficGen[*].name "\"US3\""
config *.US3.periodicTrafficGen[*].payloadSize 188B
config *.US3.periodicTrafficGen[*].burstSize 1
config *.US3.periodicTrafficGen[*].destAddr "\"CU\""
config *.US3.periodicTrafficGen[*].srcAddr "\"US3\""
config *.US3.periodicTrafficGen[*].vlanid 3
config *.US3.periodicTrafficGen[*].deadlineRel 0.1s
config *.US3.ethController.ethEncap.address "\"US3\""
config *.US3.ethController.etherMAC.datarate 1Gbps
config *.US3.ethController.etherMAC.vlans [3]
config *.CM1.n 1
config *.CM1.periodicTrafficGen[*].period 0.01666s
config *.CM1.periodicTrafficGen[*].startTime 1s
config *.CM1.periodicTrafficGen[*].name "\"CM1\""
config *.CM1.periodicTrafficGen[*].payloadSize 178500B
config *.CM1.periodicTrafficGen[*].burstSize 1
config *.CM1.periodicTrafficGen[*].destAddr "\"HU\""
config *.CM1.periodicTrafficGen[*].srcAddr "\"CM1\""
config *.CM1.periodicTrafficGen[*].vlanid 5
config *.CM1.periodicTrafficGen[*].deadlineRel 0.01666s
config *.CM1.ethController.ethEncap.address "\"CM1\""
config *.CM1.ethController.etherMAC.datarate 1Gbps
config *.CM1.ethController.etherMAC.vlans [5]
config *.LD1.n 1
config *.LD1.periodicTrafficGen[*].period 0.0014s
config *.LD1.periodicTrafficGen[*].startTime 1s
config *.LD1.periodicTrafficGen[*].name "\"LD1\""
config *.LD1.periodicTrafficGen[*].payloadSize 1300B
config *.LD1.periodicTrafficGen[*].burstSize 1
config *.LD1.periodicTrafficGen[*].destAddr "\"CU\""
config *.LD1.periodicTrafficGen[*].srcAddr "\"LD1\""
config *.LD1.periodicTrafficGen[*].vlanid 1
config *.LD1.periodicTrafficGen[*].deadlineRel 0.0014s
config *.LD1.ethController.ethEncap.address "\"LD1\""
config *.LD1.ethController.etherMAC.datarate 1Gbps
config *.LD1.ethController.etherMAC.vlans [1]
config *.US1.n 1
config *.US1.periodicTrafficGen[*].period 0.1s
config *.US1.periodicTrafficGen[*].startTime 1s
config *.US1.periodicTrafficGen[*].name "\"US1\""
config *.US1.periodicTrafficGen[*].payloadSize 188B
config *.US1.periodicTrafficGen[*].burstSize 1
config *.US1.periodicTrafficGen[*].destAddr "\"CU\""
config *.US1.periodicTrafficGen[*].srcAddr "\"US1\""
config *.US1.periodicTrafficGen[*].vlanid 3
config *.US1.periodicTrafficGen[*].deadlineRel 0.1s
config *.US1.ethController.ethEncap.address "\"US1\""
config *.US1.ethController.etherMAC.datarate 1Gbps
config *.US1.ethController.etherMAC.vlans [3]
config *.S1.n 1
config *.S1.periodicTrafficGen[*].period 0s
config *.S1.periodicTrafficGen[*].startTime 0s
config *.S1.periodicTrafficGen[*].name "\"S1\""
config *.S1.periodicTrafficGen[*].payloadSize 0B
config *.S1.periodicTrafficGen[*].burstSize 0
config *.S1.periodicTrafficGen[*].destAddr "\"\""
config *.S1.periodicTrafficGen[*].srcAddr "\"S1\""
config *.S1.periodicTrafficGen[*].deadlineRel 0s
config *.S1.ethController.ethEncap.address "\"S1\""
config *.S1.ethController.etherMAC.datarate 1Gbps
config *.S1.ethController.etherMAC.vlans [2]
config *.ME.n 6
config *.ME.periodicTrafficGen[0].period 0.000250s
config *.ME.periodicTrafficGen[0].startTime 1s
config *.ME.periodicTrafficGen[0].name "\"ME\""
config *.ME.periodicTrafficGen[0].payloadSize 80B
config *.ME.periodicTrafficGen[0].burstSize 1
config *.ME.periodicTrafficGen[0].destAddr "\"S1\""
config *.ME.periodicTrafficGen[0].srcAddr "\"ME\""
config *.ME.periodicTrafficGen[0].vlanid 2
config *.ME.periodicTrafficGen[0].deadlineRel 0.000250s
config *.ME.periodicTrafficGen[1].period 0.000250s
config *.ME.periodicTrafficGen[1].startTime 1s
config *.ME.periodicTrafficGen[1].name "\"ME\""
config *.ME.periodicTrafficGen[1].payloadSize 80B
config *.ME.periodicTrafficGen[1].burstSize 1
config *.ME.periodicTrafficGen[1].destAddr "\"S2\""
config *.ME.periodicTrafficGen[1].vlanid 2
config *.ME.periodicTrafficGen[1].srcAddr "\"ME\""
config *.ME.periodicTrafficGen[1].deadlineRel 0.000250s
config *.ME.periodicTrafficGen[2].period 0.000250s
config *.ME.periodicTrafficGen[2].startTime 1s
config *.ME.periodicTrafficGen[2].name "\"ME\""
config *.ME.periodicTrafficGen[2].payloadSize 80B
config *.ME.periodicTrafficGen[2].burstSize 1
config *.ME.periodicTrafficGen[2].destAddr "\"S3\""
config *.ME.periodicTrafficGen[2].vlanid 2
config *.ME.periodicTrafficGen[2].srcAddr "\"ME\""
config *.ME.periodicTrafficGen[2].deadlineRel 0.000250s
config *.ME.periodicTrafficGen[3].period 0.000250s
config *.ME.periodicTrafficGen[3].startTime 1s
config *.ME.periodicTrafficGen[3].name "\"ME\""
config *.ME.periodicTrafficGen[3].payloadSize 80B
config *.ME.periodicTrafficGen[3].burstSize 1
config *.ME.periodicTrafficGen[3].destAddr "\"S4\""
config *.ME.periodicTrafficGen[3].srcAddr "\"ME\""
config *.ME.periodicTrafficGen[3].vlanid 2
config *.ME.periodicTrafficGen[3].deadlineRel 0.000250s
config *.ME.periodicTrafficGen[4].period 0.03333s
config *.ME.periodicTrafficGen[4].startTime 1s
config *.ME.periodicTrafficGen[4].name "\"ME\""
config *.ME.periodicTrafficGen[4].payloadSize 178500B
config *.ME.periodicTrafficGen[4].burstSize 1
config *.ME.periodicTrafficGen[4].destAddr "\"RS1\""
config *.ME.periodicTrafficGen[4].srcAddr "\"ME\""
config *.ME.periodicTrafficGen[4].vlanid 6
config *.ME.periodicTrafficGen[4].deadlineRel 0.03333s
config *.ME.periodicTrafficGen[5].period 0.03333s
config *.ME.periodicTrafficGen[5].startTime 1s
config *.ME.periodicTrafficGen[5].name "\"ME\""
config *.ME.periodicTrafficGen[5].payloadSize 178500B
config *.ME.periodicTrafficGen[5].burstSize 1
config *.ME.periodicTrafficGen[5].destAddr "\"RS2\""
config *.ME.periodicTrafficGen[5].srcAddr "\"ME\""
config *.ME.periodicTrafficGen[5].vlanid 6
config *.ME.periodicTrafficGen[5].deadlineRel 0.03333s
config *.ME.ethController.ethEncap.address "\"ME\""
config *.ME.ethController.etherMAC.datarate 1Gbps
config *.ME.ethController.etherMAC.vlans "[2, 6]"
config *.RS2.n 1
config *.RS2.periodicTrafficGen[*].period 0s
config *.RS2.periodicTrafficGen[*].startTime 0s
config *.RS2.periodicTrafficGen[*].name "\"RS2\""
config *.RS2.periodicTrafficGen[*].payloadSize 0B
config *.RS2.periodicTrafficGen[*].burstSize 0
config *.RS2.periodicTrafficGen[*].destAddr "\"\""
config *.RS2.periodicTrafficGen[*].srcAddr "\"RS2\""
config *.RS2.periodicTrafficGen[*].deadlineRel 0s
config *.RS2.ethController.ethEncap.address "\"RS2\""
config *.RS2.ethController.etherMAC.datarate 1Gbps
config *.RS2.ethController.etherMAC.vlans [6]
config *.S3.n 1
config *.S3.periodicTrafficGen[*].period 0s
config *.S3.periodicTrafficGen[*].startTime 0s
config *.S3.periodicTrafficGen[*].name "\"S3\""
config *.S3.periodicTrafficGen[*].payloadSize 0B
config *.S3.periodicTrafficGen[*].burstSize 0
config *.S3.periodicTrafficGen[*].destAddr "\"\""
config *.S3.periodicTrafficGen[*].srcAddr "\"S3\""
config *.S3.periodicTrafficGen[*].deadlineRel 0s
config *.S3.ethController.ethEncap.address "\"S3\""
config *.S3.ethController.etherMAC.datarate 1Gbps
config *.S3.ethController.etherMAC.vlans [2]
config *.US4.n 1
config *.US4.periodicTrafficGen[*].period 0.1s
config *.US4.periodicTrafficGen[*].startTime 1s
config *.US4.periodicTrafficGen[*].name "\"US4\""
config *.US4.periodicTrafficGen[*].payloadSize 188B
config *.US4.periodicTrafficGen[*].burstSize 1
config *.US4.periodicTrafficGen[*].destAddr "\"CU\""
config *.US4.periodicTrafficGen[*].srcAddr "\"US4\""
config *.US4.periodicTrafficGen[*].vlanid 3
config *.US4.periodicTrafficGen[*].deadlineRel 0.1s
config *.US4.ethController.ethEncap.address "\"US4\""
config *.US4.ethController.etherMAC.datarate 1Gbps
config *.US4.ethController.etherMAC.vlans [3]
config *.SW1.portCount 5
config *.SW1.eth[*].datarate 1Gbps
config *.SW1.eth[0].vlans "[2, 6]"
config *.SW1.eth[1].vlans [6]
config *.SW1.eth[2].vlans "[2, 5]"
config *.SW1.eth[3].vlans "[2, 3]"
config *.SW1.eth[4].vlans "[2, 3, 5, 6]"
config *.SW2.portCount 6
config *.SW2.eth[*].datarate 1Gbps
config *.SW2.eth[0].vlans [7]
config *.SW2.eth[1].vlans "[4, 5, 7, 8]"
config *.SW2.eth[2].vlans [6]
config *.SW2.eth[3].vlans "[2, 3, 4, 5, 7]"
config *.SW2.eth[4].vlans "[3, 8]"
config *.SW2.eth[5].vlans "[2, 3, 5, 6]"
config *.SW3.portCount 6
config *.SW3.eth[*].datarate 1Gbps
config *.SW3.eth[0].vlans [1]
config *.SW3.eth[1].vlans [3]
config *.SW3.eth[2].vlans [2]
config *.SW3.eth[3].vlans "[1, 3, 7]"
config *.SW3.eth[4].vlans "[2, 3, 5]"
config *.SW3.eth[5].vlans "[2, 3, 4, 5, 7]"
config *.SW4.portCount 6
config *.SW4.eth[*].datarate 1Gbps
config *.SW4.eth[0].vlans [5]
config *.SW4.eth[1].vlans [1]
config *.SW4.eth[2].vlans [3]
config *.SW4.eth[3].vlans [2]
config *.SW4.eth[4].vlans "[1, 2, 3, 5]"
config *.SW4.eth[5].vlans "[2, 5]"
config *.SW5.portCount 4
config *.SW5.eth[*].datarate 1Gbps
config *.SW5.eth[0].vlans [3]
config *.SW5.eth[1].vlans [2]
config *.SW5.eth[2].vlans "[2, 3]"
config *.SW5.eth[3].vlans [2]
config *.SW6.portCount 5
config *.SW6.eth[*].datarate 1Gbps
config *.SW6.eth[0].vlans [2]
config *.SW6.eth[1].vlans [3]
config *.SW6.eth[2].vlans [8]
config *.SW6.eth[3].vlans "[2, 3]"
config *.SW6.eth[4].vlans "[3, 8, 2]"

vector 0 Sim1.LD2.periodicTrafficGen[0] E2EDelay:vector ETV
attr recordingmode vector
attr source E2EDelay
vector 1 Sim1.US2.periodicTrafficGen[0] E2EDelay:vector ETV
attr recordingmode vector
attr source E2EDelay
vector 2 Sim1.S2.periodicTrafficGen[0] E2EDelay:vector ETV
attr recordingmode vector
attr source E2EDelay
vector 3 Sim1.CU.periodicTrafficGen[0] E2EDelay:vector ETV
attr recordingmode vector
attr source E2EDelay
vector 4 Sim1.TLM.periodicTrafficGen[0] E2EDelay:vector ETV
attr recordingmode vector
attr source E2EDelay
vector 5 Sim1.TLM.periodicTrafficGen[1] E2EDelay:vector ETV
attr recordingmode vector
attr source E2EDelay
vector 6 Sim1.HU.periodicTrafficGen[0] E2EDelay:vector ETV
attr recordingmode vector
attr source E2EDelay
vector 7 Sim1.RS1.periodicTrafficGen[0] E2EDelay:vector ETV
attr recordingmode vector
attr source E2EDelay
vector 8 Sim1.S4.periodicTrafficGen[0] E2EDelay:vector ETV
attr recordingmode vector
attr source E2EDelay
vector 9 Sim1.RC.periodicTrafficGen[0] E2EDelay:vector ETV
attr recordingmode vector
attr source E2EDelay
vector 10 Sim1.US3.periodicTrafficGen[0] E2EDelay:vector ETV
attr recordingmode vector
attr source E2EDelay
vector 11 Sim1.CM1.periodicTrafficGen[0] E2EDelay:vector ETV
attr recordingmode vector
attr source E2EDelay
vector 12 Sim1.LD1.periodicTrafficGen[0] E2EDelay:vector ETV
attr recordingmode vector
attr source E2EDelay
vector 13 Sim1.US1.periodicTrafficGen[0] E2EDelay:vector ETV
attr recordingmode vector
attr source E2EDelay
vector 14 Sim1.S1.periodicTrafficGen[0] E2EDelay:vector ETV
attr recordingmode vector
attr source E2EDelay
vector 15 Sim1.ME.periodicTrafficGen[0] E2EDelay:vector ETV
attr recordingmode vector
attr source E2EDelay
vector 16 Sim1.ME.periodicTrafficGen[1] E2EDelay:vector ETV
attr recordingmode vector
attr source E2EDelay
vector 17 Sim1.ME.periodicTrafficGen[2] E2EDelay:vector ETV
attr recordingmode vector
attr source E2EDelay
vector 18 Sim1.ME.periodicTrafficGen[3] E2EDelay:vector ETV
attr recordingmode vector
attr source E2EDelay
vector 19 Sim1.ME.periodicTrafficGen[4] E2EDelay:vector ETV
attr recordingmode vector
attr source E2EDelay
vector 20 Sim1.ME.periodicTrafficGen[5] E2EDelay:vector ETV
attr recordingmode vector
attr source E2EDelay
vector 21 Sim1.RS2.periodicTrafficGen[0] E2EDelay:vector ETV
attr recordingmode vector
attr source E2EDelay
vector 22 Sim1.S3.periodicTrafficGen[0] E2EDelay:vector ETV
attr recordingmode vector
attr source E2EDelay
vector 23 Sim1.US4.periodicTrafficGen[0] E2EDelay:vector ETV
attr recordingmode vector
attr source E2EDelay
2	415	1.000004496	4.496e-06
2	687	1.000006448	6.448e-06
2	1543	1.000012304	1.2304e-05
2	1690	1.00001328	1.328e-05
2	2511	1.000019136	1.9136e-05
2	2913	1.000022064	2.2064e-05
2	3973	1.000029872	2.9872e-05
2	4365	1.0000328	3.28e-05
2	4499	1.000033776	3.3776e-05
2	4635	1.000034752	3.4752e-05
2	4767	1.000035728	3.5728e-05
2	5161	1.000038656	3.8656e-05
2	5949	1.000044512	4.4512e-05
2	6611	1.000049392	4.9392e-05
2	7271	1.000054272	5.4272e-05
2	7407	1.000055248	5.5248e-05
2	8197	1.000061104	6.1104e-05
2	8857	1.000065984	6.5984e-05
2	9513	1.000070864	7.0864e-05
2	9647	1.00007184	7.184e-05
2	10175	1.000075744	7.5744e-05
2	10571	1.000078672	7.8672e-05
2	11099	1.000082576	8.2576e-05
2	11233	1.000083552	8.3552e-05
2	12824	1.000095264	9.5264e-05
2	13484	1.000100144	0.000100144
2	14012	1.000104048	0.000104048
2	14144	1.000105024	0.000105024
2	14672	1.000108928	0.000108928
2	14806	1.000109904	0.000109904
2	15070	1.000111856	0.000111856
2	15464	1.000114784	0.000114784
2	15730	1.000116736	0.000116736
2	16392	1.000121616	0.000121616
2	17180	1.000127472	0.000127472
2	17708	1.000131376	0.000131376
2	17842	1.000132352	0.000132352
2	17976	1.000133328	0.000133328
2	18368	1.000136256	0.000136256
2	18632	1.000138208	0.000138208
2	19820	1.000146992	0.000146992
2	20214	1.00014992	0.00014992
2	20348	1.000150896	0.000150896
2	20482	1.000151872	0.000151872
2	20614	1.000152848	0.000152848
2	20876	1.0001548	0.0001548
2	21010	1.000155776	0.000155776
2	21272	1.000157728	0.000157728
2	21536	1.00015968	0.00015968
2	22724	1.000168464	0.000168464
2	23382	1.000173344	0.000173344
2	23782	1.000176272	0.000176272
2	25630	1.000189936	0.000189936
2	26286	1.000194816	0.000194816
2	26550	1.000196768	0.000196768
2	28270	1.000209456	0.000209456
2	28534	1.000211408	0.000211408
2	28926	1.000214336	0.000214336
2	29194	1.000216288	0.000216288
2	29590	1.000219216	0.000219216
2	30248	1.000224096	0.000224096
2	31176	1.000230928	0.000230928
2	31440	1.00023288	0.00023288
2	31702	1.000234832	0.000234832
2	31834	1.000235808	0.000235808
2	31966	1.000236784	0.000236784
2	32098	1.00023776	0.00023776
2	32360	1.000239712	0.000239712
2	32626	1.000241664	0.000241664
2	34360	1.000254352	0.000254352
2	34624	1.000256304	0.000256304
2	35150	1.000260208	0.000260208
2	35282	1.000261184	0.000261184
2	35808	1.000265088	0.000265088
2	35942	1.000266064	0.000266064
2	36600	1.000270944	0.000270944
2	36998	1.000273872	0.000273872
2	37262	1.000275824	0.000275824
2	37524	1.000277776	0.000277776
2	37658	1.000278752	0.000278752
2	37920	1.000280704	0.000280704
2	38184	1.000282656	0.000282656
2	39904	1.000295344	0.000295344
2	40562	1.000300224	0.000300224
2	41216	1.000305104	0.000305104
2	41350	1.00030608	0.00030608
2	41484	1.000307056	0.000307056
2	41878	1.000309984	0.000309984
2	42144	1.000311936	0.000311936
2	42278	1.000312912	0.000312912
2	42806	1.000316816	0.000316816
2	42940	1.000317792	0.000317792
2	43332	1.00032072	0.00032072
2	43466	1.000321696	0.000321696
2	43990	1.0003256	0.0003256
2	44124	1.000326576	0.000326576
2	44782	1.000331456	0.000331456
2	46238	1.000342192	0.000342192
2	46894	1.000347072	0.000347072
2	47030	1.000348048	0.000348048
2	47688	1.000352928	0.000352928
2	47822	1.000353904	0.000353904
2	48482	1.000358784	0.000358784
2	49142	1.000363664	0.000363664
2	52838	1.000390992	0.000390992
2	53102	1.000392944	0.000392944
2	53496	1.000395872	0.000395872
2	53758	1.000397824	0.000397824
2	54024	1.000399776	0.000399776
2	55212	1.00040856	0.00040856
2	55740	1.000412464	0.000412464
2	55872	1.00041344	0.00041344
2	56400	1.000417344	0.000417344
2	57854	1.00042808	0.00042808
2	58118	1.000430032	0.000430032
2	58380	1.000431984	0.000431984
2	58512	1.00043296	0.00043296
2	58646	1.000433936	0.000433936
2	58778	1.000434912	0.000434912
2	59040	1.000436864	0.000436864
2	59304	1.000438816	0.000438816
2	59438	1.000439792	0.000439792
2	60096	1.000444672	0.000444672
2	60758	1.000449552	0.000449552
2	61022	1.000451504	0.000451504
2	61414	1.000454432	0.000454432
2	61680	1.000456384	0.000456384
2	62078	1.000459312	0.000459312
2	62736	1.000464192	0.000464192
2	63928	1.000472976	0.000472976
2	64454	1.00047688	0.00047688
2	64588	1.000477856	0.000477856
2	64982	1.000480784	0.000480784
2	65116	1.00048176	0.00048176
2	65510	1.000484688	0.000484688
2	65644	1.000485664	0.000485664
2	66168	1.000489568	0.000489568
2	67356	1.000498352	0.000498352
2	67902	1.000502256	0.000502256
2	68036	1.000503232	0.000503232
2	68562	1.000507136	0.000507136
2	70014	1.000517872	0.000517872
2	70276	1.000519824	0.000519824
2	70542	1.000521776	0.000521776
2	70676	1.000522752	0.000522752
2	70808	1.000523728	0.000523728
2	71070	1.00052568	0.00052568
2	71202	1.000526656	0.000526656
2	71464	1.000528608	0.000528608
2	71728	1.00053056	0.00053056
2	71862	1.000531536	0.000531536
2	72520	1.000536416	0.000536416
2	72652	1.000537392	0.000537392
2	73312	1.000542272	0.000542272
2	73448	1.000543248	0.000543248
2	73712	1.0005452	0.0005452
2	74104	1.000548128	0.000548128
2	74368	1.00055008	0.00055008
2	75556	1.000558864	0.000558864
2	76084	1.000562768	0.000562768
2	76220	1.000563744	0.000563744
2	76614	1.000566672	0.000566672
2	76748	1.000567648	0.000567648
2	77274	1.000571552	0.000571552
2	77408	1.000572528	0.000572528
2	78064	1.000577408	0.000577408
2	78458	1.000580336	0.000580336
2	79120	1.000585216	0.000585216
2	80574	1.000595952	0.000595952
2	81102	1.000599856	0.000599856
2	81234	1.000600832	0.000600832
2	81366	1.000601808	0.000601808
2	81628	1.00060376	0.00060376
2	81762	1.000604736	0.000604736
2	82024	1.000606688	0.000606688
2	82290	1.00060864	0.00060864
2	82684	1.000611568	0.000611568
2	83210	1.000615472	0.000615472
2	83342	1.000616448	0.000616448
2	83606	1.0006184	0.0006184
2	83872	1.000620352	0.000620352
2	84004	1.000621328	0.000621328
2	84268	1.00062328	0.00062328
2	84541	1.000625232	0.000625232
2	84673	1.000626208	0.000626208
2	84937	1.00062816	0.00062816
2	85210	1.000630112	0.000630112
2	85346	1.000631088	0.000631088
2	86022	1.000635968	0.000635968
2	86156	1.000636944	0.000636944
2	86816	1.000641824	0.000641824
2	87214	1.000644752	0.000644752
2	87872	1.000649632	0.000649632
2	88266	1.00065256	0.00065256
2	88928	1.00065744	0.00065744
2	89852	1.000664272	0.000664272
2	90118	1.000666224	0.000666224
2	90512	1.000669152	0.000669152
2	90776	1.000671104	0.000671104
2	92760	1.000685744	0.000685744
2	93418	1.000690624	0.000690624
2	94076	1.000695504	0.000695504
2	94736	1.000700384	0.000700384
2	95664	1.000707216	0.000707216
2	96320	1.000712096	0.000712096
2	96980	1.000716976	0.000716976
2	97244	1.000718928	0.000718928
2	97640	1.000721856	0.000721856
2	97904	1.000723808	0.000723808
2	99884	1.000738448	0.000738448
2	101750	1.000752112	0.000752112
2	102408	1.000756992	0.000756992
2	102804	1.00075992	0.00075992
2	103464	1.0007648	0.0007648
2	104390	1.000771632	0.000771632
2	105050	1.000776512	0.000776512
2	107292	1.000793104	0.000793104
2	107820	1.000797008	0.000797008
2	107956	1.000797984	0.000797984
2	108480	1.000801888	0.000801888
2	109004	1.000805792	0.000805792
2	112044	1.00082824	0.00082824
2	112310	1.000830192	0.000830192
2	112704	1.00083312	0.00083312
2	112968	1.000835072	0.000835072
2	113102	1.000836048	0.000836048
2	113366	1.000838	0.000838
2	113760	1.000840928	0.000840928
2	114024	1.00084288	0.00084288
2	114950	1.000849712	0.000849712
2	115608	1.000854592	0.000854592
2	116004	1.00085752	0.00085752
2	116666	1.0008624	0.0008624
2	117326	1.00086728	0.00086728
2	117590	1.000869232	0.000869232
2	117854	1.000871184	0.000871184
2	117986	1.00087216	0.00087216
2	118248	1.000874112	0.000874112
2	118382	1.000875088	0.000875088
2	118514	1.000876064	0.000876064
2	118906	1.000878992	0.000878992
2	119042	1.000879968	0.000879968
2	119568	1.000883872	0.000883872
2	120228	1.000888752	0.000888752
2	120494	1.000890704	0.000890704
2	120888	1.000893632	0.000893632
2	121154	1.000895584	0.000895584
2	123132	1.000910224	0.000910224
2	123662	1.000914128	0.000914128
2	123796	1.000915104	0.000915104
2	123928	1.00091608	0.00091608
2	124320	1.000919008	0.000919008
2	124584	1.00092096	0.00092096
2	124982	1.000923888	0.000923888
2	125640	1.000928768	0.000928768
2	125774	1.000929744	0.000929744
2	126038	1.000931696	0.000931696
2	126432	1.000934624	0.000934624
2	126566	1.0009356	0.0009356
2	126700	1.000936576	0.000936576
2	127094	1.000939504	0.000939504
2	127228	1.00094048	0.00094048
2	127622	1.000943408	0.000943408
2	127756	1.000944384	0.000944384
2	128282	1.000948288	0.000948288
2	128678	1.000951216	0.000951216
2	129338	1.000956096	0.000956096
2	129470	1.000957072	0.000957072
2	129734	1.000959024	0.000959024
2	130126	1.000961952	0.000961952
2	130394	1.000963904	0.000963904
2	130528	1.00096488	0.00096488
2	131186	1.00096976	0.00096976
2	131584	1.000972688	0.000972688
2	132240	1.000977568	0.000977568
2	132638	1.000980496	0.000980496
2	133298	1.000985376	0.000985376
2	136350	1.001007824	0.001007824
2	137010	1.001012704	0.001012704
2	137408	1.001015632	0.001015632
2	137672	1.001017584	0.001017584
2	138064	1.001020512	0.001020512
2	138330	1.001022464	0.001022464
2	139252	1.001029296	0.001029296
2	139782	1.0010332	0.0010332
2	139916	1.001034176	0.001034176
2	140310	1.001037104	0.001037104
2	140444	1.00103808	0.00103808
2	140968	1.001041984	0.001041984
2	141628	1.001046864	0.001046864
2	142156	1.001050768	0.001050768
2	142292	1.001051744	0.001051744
2	142426	1.00105272	0.00105272
2	142688	1.001054672	0.001054672
2	142950	1.001056624	0.001056624
2	143082	1.0010576	0.0010576
2	143214	1.001058576	0.001058576
2	143346	1.001059552	0.001059552
2	143608	1.001061504	0.001061504
2	143740	1.00106248	0.00106248
2	143874	1.001063456	0.001063456
2	144398	1.00106736	0.00106736
2	145328	1.001074192	0.001074192
2	145592	1.001076144	0.001076144
2	145984	1.001079072	0.001079072
2	146248	1.001081024	0.001081024
2	146908	1.001085904	0.001085904
2	147172	1.001087856	0.001087856
2	147568	1.001090784	0.001090784
2	147834	1.001092736	0.001092736
2	148232	1.001095664	0.001095664
2	148496	1.001097616	0.001097616
2	148888	1.001100544	0.001100544
2	149022	1.00110152	0.00110152
2	149154	1.001102496	0.001102496
2	149286	1.001103472	0.001103472
2	149680	1.0011064	0.0011064
2	149814	1.001107376	0.001107376
2	149946	1.001108352	0.001108352
2	150474	1.001112256	0.001112256
2	150870	1.001115184	0.001115184
2	151528	1.001120064	0.001120064
2	151924	1.001122992	0.001122992
2	152584	1.001127872	0.001127872
2	152716	1.001128848	0.001128848
2	153374	1.001133728	0.001133728
2	153774	1.001136656	0.001136656
2	154432	1.001141536	0.001141536
2	154830	1.001144464	0.001144464
2	155488	1.001149344	0.001149344
2	156414	1.001156176	0.001156176
2	157074	1.001161056	0.001161056
2	158524	1.001171792	0.001171792
2	158790	1.001173744	0.001173744
2	159184	1.001176672	0.001176672
2	159450	1.001178624	0.001178624
2	161428	1.001193264	0.001193264
2	161958	1.001197168	0.001197168
2	162090	1.001198144	0.001198144
2	162618	1.001202048	0.001202048
2	162752	1.001203024	0.001203024
2	163408	1.001207904	0.001207904
2	163802	1.001210832	0.001210832
2	164068	1.001212784	0.001212784
2	164332	1.001214736	0.001214736
2	164464	1.001215712	0.001215712
2	164728	1.001217664	0.001217664
2	164862	1.00121864	0.00121864
2	164994	1.001219616	0.001219616
2	165126	1.001220592	0.001220592
2	165520	1.00122352	0.00122352
2	165786	1.001225472	0.001225472
2	166706	1.001232304	0.001232304
2	166972	1.001234256	0.001234256
2	167366	1.001237184	0.001237184
2	167634	1.001239136	0.001239136
2	167766	1.001240112	0.001240112
2	168028	1.001242064	0.001242064
2	168160	1.00124304	0.00124304
2	168292	1.001244016	0.001244016
2	168426	1.001244992	0.001244992
2	168688	1.001246944	0.001246944
2	168952	1.001248896	0.001248896
2	169637	1.001253776	0.001253776
2	170178	1.00125768	0.00125768
2	170312	1.001258656	0.001258656
2	170444	1.001259632	0.001259632
2	170722	1.001261584	0.001261584
2	170854	1.00126256	0.00126256
2	170986	1.001263536	0.001263536
2	171118	1.001264512	0.001264512
2	171384	1.001266464	0.001266464
2	171648	1.001268416	0.001268416
2	172308	1.001273296	0.001273296
2	172574	1.001275248	0.001275248
2	172968	1.001278176	0.001278176
2	173102	1.001279152	0.001279152
2	173236	1.001280128	0.001280128
2	173762	1.001284032	0.001284032
2	173896	1.001285008	0.001285008
2	174552	1.001289888	0.001289888
2	175212	1.001294768	0.001294768
2	175742	1.001298672	0.001298672
2	175876	1.001299648	0.001299648
2	176008	1.001300624	0.001300624
2	176400	1.001303552	0.001303552
2	176664	1.001305504	0.001305504
2	178114	1.00131624	0.00131624
2	178380	1.001318192	0.001318192
2	178774	1.00132112	0.00132112
2	179042	1.001323072	0.001323072
2	181286	1.001339664	0.001339664
2	181814	1.001343568	0.001343568
2	181948	1.001344544	0.001344544
2	182474	1.001348448	0.001348448
2	184190	1.001361136	0.001361136
2	184850	1.001366016	0.001366016
2	186832	1.001380656	0.001380656
2	187096	1.001382608	0.001382608
2	187358	1.00138456	0.00138456
2	187490	1.001385536	0.001385536
2	187752	1.001387488	0.001387488
2	188018	1.00138944	0.00138944
2	189744	1.001402128	0.001402128
2	190006	1.00140408	0.00140408
2	190402	1.001407008	0.001407008
2	190536	1.001407984	0.001407984
2	190668	1.00140896	0.00140896
2	191213	1.001412864	0.001412864
2	192935	1.001425552	0.001425552
2	193201	1.001427504	0.001427504
2	193586	1.001430432	0.001430432
2	193835	1.001432384	0.001432384
2	195458	1.001445072	0.001445072
2	195946	1.001448976	0.001448976
2	196068	1.001449952	0.001449952
2	196536	1.001453856	0.001453856
2	198005	1.001466544	0.001466544
2	198572	1.001471424	0.001471424
2	200491	1.001488016	0.001488016
2	203673	1.001515344	0.001515344
2	204238	1.001520224	0.001520224
2	205479	1.00153096	0.00153096
2	206044	1.00153584	0.00153584
2	208191	1.001554384	0.001554384
2	208419	1.001556336	0.001556336
2	208754	1.001559264	0.001559264
2	208984	1.001561216	0.001561216
2	209325	1.001564144	0.001564144
2	209886	1.001569024	0.001569024
2	210225	1.001571952	0.001571952
2	210675	1.001575856	0.001575856
2	210792	1.001576832	0.001576832
2	211240	1.001580736	0.001580736
2	211583	1.001583664	0.001583664
2	212146	1.001588544	0.001588544
2	213163	1.001597328	0.001597328
2	213730	1.001602208	0.001602208
2	214071	1.001605136	0.001605136
2	214632	1.001610016	0.001610016
2	215532	1.001617824	0.001617824
2	216557	1.001626608	0.001626608
2	217118	1.001631488	0.001631488
2	218361	1.001642224	0.001642224
2	218815	1.001646128	0.001646128
2	218930	1.001647104	0.001647104
2	219378	1.001651008	0.001651008
2	220619	1.001661744	0.001661744
2	221186	1.001666624	0.001666624
2	221303	1.0016676	0.0016676
2	221751	1.001671504	0.001671504
2	221866	1.00167248	0.00167248
2	222314	1.001676384	0.001676384
2	223109	1.001683216	0.001683216
2	223561	1.00168712	0.00168712
2	223676	1.001688096	0.001688096
2	224126	1.001692	0.001692
2	225595	1.001704688	0.001704688
2	226160	1.001709568	0.001709568
2	226275	1.001710544	0.001710544
2	226501	1.001712496	0.001712496
2	226836	1.001715424	0.001715424
2	227062	1.001717376	0.001717376
2	227401	1.001720304	0.001720304
2	227853	1.001724208	0.001724208
2	227970	1.001725184	0.001725184
2	228083	1.00172616	0.00172616
2	228307	1.001728112	0.001728112
2	228420	1.001729088	0.001729088
2	228644	1.00173104	0.00173104
2	228759	1.001732016	0.001732016
2	228874	1.001732992	0.001732992
2	229324	1.001736896	0.001736896
2	229661	1.001739824	0.001739824
2	230226	1.001744704	0.001744704
2	230343	1.00174568	0.00174568
2	230569	1.001747632	0.001747632
2	230793	1.001749584	0.001749584
2	230922	1.00175056	0.00175056
2	231035	1.001751536	0.001751536
2	231148	1.001752512	0.001752512
2	231261	1.001753488	0.001753488
2	231374	1.001754464	0.001754464
2	231598	1.001756416	0.001756416
2	231824	1.001758368	0.001758368
2	232163	1.001761296	0.001761296
2	232730	1.001766176	0.001766176
2	233069	1.001769104	0.001769104
2	233295	1.001771056	0.001771056
2	233632	1.001773984	0.001773984
2	233860	1.001775936	0.001775936
2	235329	1.001788624	0.001788624
2	235557	1.001790576	0.001790576
2	235781	1.001792528	0.001792528
2	235894	1.001793504	0.001793504
2	236118	1.001795456	0.001795456
2	236346	1.001797408	0.001797408
2	236461	1.001798384	0.001798384
2	237022	1.001803264	0.001803264
2	237813	1.001810096	0.001810096
2	238380	1.001814976	0.001814976
2	238721	1.001817904	0.001817904
2	239282	1.001822784	0.001822784
2	240073	1.001829616	0.001829616
2	240301	1.001831568	0.001831568
2	240638	1.001834496	0.001834496
2	240866	1.001836448	0.001836448
2	241207	1.001839376	0.001839376
2	241655	1.00184328	0.00184328
2	241770	1.001844256	0.001844256
2	242220	1.00184816	0.00184816
2	242335	1.001849136	0.001849136
2	242898	1.001854016	0.001854016
2	243467	1.001858896	0.001858896
2	244030	1.001863776	0.001863776
2	244823	1.001870608	0.001870608
2	245273	1.001874512	0.001874512
2	245397	1.001875488	0.001875488
2	245847	1.001879392	0.001879392
2	246199	1.00188232	0.00188232
2	246425	1.001884272	0.001884272
2	246776	1.0018872	0.0018872
2	247004	1.001889152	0.001889152
2	247119	1.001890128	0.001890128
2	247686	1.001895008	0.001895008
2	248027	1.001897936	0.001897936
2	248253	1.001899888	0.001899888
2	248588	1.001902816	0.001902816
2	248703	1.001903792	0.001903792
2	248818	1.001904768	0.001904768
2	249266	1.001908672	0.001908672
2	249835	1.001913552	0.001913552
2	250061	1.001915504	0.001915504
2	250396	1.001918432	0.001918432
2	250511	1.001919408	0.001919408
2	250626	1.001920384	0.001920384
2	251074	1.001924288	0.001924288
2	251189	1.001925264	0.001925264
2	251641	1.001929168	0.001929168
2	251756	1.001930144	0.001930144
2	251869	1.00193112	0.00193112
2	252204	1.001934048	0.001934048
2	252319	1.001935024	0.001935024
2	252434	1.001936	0.001936
2	252884	1.001939904	0.001939904
2	252999	1.00194088	0.00194088
2	253562	1.00194576	0.00194576
2	254127	1.00195064	0.00195064
2	254692	1.00195552	0.00195552
2	254807	1.001956496	0.001956496
2	255368	1.001961376	0.001961376
2	256613	1.001972112	0.001972112
2	257176	1.001976992	0.001976992
2	258193	1.001985776	0.001985776
2	258760	1.001990656	0.001990656
2	260021	1.002001392	0.002001392
2	260469	1.002005296	0.002005296
2	260584	1.002006272	0.002006272
2	261034	1.002010176	0.002010176
2	262277	1.002020912	0.002020912
2	262844	1.002025792	0.002025792
2	262959	1.002026768	0.002026768
2	263522	1.002031648	0.002031648
2	264765	1.002042384	0.002042384
2	265217	1.002046288	0.002046288
2	265332	1.002047264	0.002047264
2	265780	1.002051168	0.002051168
2	267251	1.002063856	0.002063856
2	267816	1.002068736	0.002068736
2	267929	1.002069712	0.002069712
2	268492	1.002074592	0.002074592
2	268835	1.00207752	0.00207752
2	269059	1.002079472	0.002079472
2	269396	1.0020824	0.0020824
2	269511	1.002083376	0.002083376
2	269626	1.002084352	0.002084352
2	269739	1.002085328	0.002085328
2	269963	1.00208728	0.00208728
2	270076	1.002088256	0.002088256
2	270300	1.002090208	0.002090208
2	270413	1.002091184	0.002091184
2	270528	1.00209216	0.00209216
2	270863	1.002095088	0.002095088
2	270978	1.002096064	0.002096064
2	271317	1.002098992	0.002098992
2	271430	1.002099968	0.002099968
2	271882	1.002103872	0.002103872
2	271997	1.002104848	0.002104848
2	272221	1.0021068	0.0021068
2	272560	1.002109728	0.002109728
2	272788	1.00211168	0.00211168
2	272903	1.002112656	0.002112656
2	273131	1.002114608	0.002114608
2	273355	1.00211656	0.00211656
2	273579	1.002118512	0.002118512
2	273692	1.002119488	0.002119488
2	273805	1.002120464	0.002120464
2	273918	1.00212144	0.00212144
2	274142	1.002123392	0.002123392
2	274257	1.002124368	0.002124368
2	274370	1.002125344	0.002125344
2	274707	1.002128272	0.002128272
2	274822	1.002129248	0.002129248
2	275274	1.002133152	0.002133152
2	275611	1.00213608	0.00213608
2	275837	1.002138032	0.002138032
2	276174	1.00214096	0.00214096
2	276291	1.002141936	0.002141936
2	276404	1.002142912	0.002142912
2	276854	1.002146816	0.002146816
2	278325	1.002159504	0.002159504
2	278553	1.002161456	0.002161456
2	278777	1.002163408	0.002163408
2	278890	1.002164384	0.002164384
2	279003	1.00216536	0.00216536
2	279116	1.002166336	0.002166336
2	279340	1.002168288	0.002168288
2	279566	1.00217024	0.00217024
2	279907	1.002173168	0.002173168
2	280470	1.002178048	0.002178048
2	281037	1.002182928	0.002182928
2	281261	1.00218488	0.00218488
2	281487	1.002186832	0.002186832
2	281602	1.002187808	0.002187808
2	281826	1.00218976	0.00218976
2	282054	1.002191712	0.002191712
2	282169	1.002192688	0.002192688
2	282732	1.002197568	0.002197568
2	283299	1.002202448	0.002202448
2	283747	1.002206352	0.002206352
2	283862	1.002207328	0.002207328
2	284314	1.002211232	0.002211232
2	284653	1.00221416	0.00221416
2	285103	1.002218064	0.002218064
2	285220	1.00221904	0.00221904
2	285668	1.002222944	0.002222944
2	286007	1.002225872	0.002225872
2	286233	1.002227824	0.002227824
2	286572	1.002230752	0.002230752
2	286800	1.002232704	0.002232704
2	287819	1.002241488	0.002241488
2	288043	1.00224344	0.00224344
2	288380	1.002246368	0.002246368
2	288495	1.002247344	0.002247344
2	288608	1.00224832	0.00224832
2	289074	1.002252224	0.002252224
2	289641	1.002257104	0.002257104
2	289867	1.002259056	0.002259056
2	290204	1.002261984	0.002261984
2	290319	1.00226296	0.00226296
2	290432	1.002263936	0.002263936
2	290882	1.00226784	0.00226784
2	290997	1.002268816	0.002268816
2	291562	1.002273696	0.002273696
2	292125	1.002278576	0.002278576
2	292579	1.00228248	0.00228248
2	292694	1.002283456	0.002283456
2	292807	1.002284432	0.002284432
2	293142	1.00228736	0.00228736
2	293370	1.002289312	0.002289312
2	294611	1.002300048	0.002300048
2	294837	1.002302	0.002302
2	295176	1.002304928	0.002304928
2	295402	1.00230688	0.00230688
2	296195	1.002313712	0.002313712
2	296758	1.002318592	0.002318592
2	297325	1.002323472	0.002323472
2	297888	1.002328352	0.002328352
2	298457	1.002333232	0.002333232
2	299018	1.002338112	0.002338112
2	300943	1.002354704	0.002354704
2	301393	1.002358608	0.002358608
2	301506	1.002359584	0.002359584
2	301956	1.002363488	0.002363488
2	303429	1.002376176	0.002376176
2	303990	1.002381056	0.002381056
2	305233	1.002391792	0.002391792
2	305685	1.002395696	0.002395696
2	305800	1.002396672	0.002396672
2	305915	1.002397648	0.002397648
2	306139	1.0023996	0.0023996
2	306252	1.002400576	0.002400576
2	306476	1.002402528	0.002402528
2	306702	1.00240448	0.00240448
2	306817	1.002405456	0.002405456
2	307041	1.002407408	0.002407408
2	307380	1.002410336	0.002410336
2	307495	1.002411312	0.002411312
2	307610	1.002412288	0.002412288
2	308060	1.002416192	0.002416192
2	308175	1.002417168	0.002417168
2	308401	1.00241912	0.00241912
2	308736	1.002422048	0.002422048
2	308962	1.002424	0.002424
2	309301	1.002426928	0.002426928
2	309866	1.002431808	0.002431808
2	309979	1.002432784	0.002432784
2	310431	1.002436688	0.002436688
2	310546	1.002437664	0.002437664
2	310661	1.00243864	0.00243864
2	310885	1.002440592	0.002440592
2	310998	1.002441568	0.002441568
2	311222	1.00244352	0.00244352
2	311448	1.002445472	0.002445472
2	311563	1.002446448	0.002446448
2	311787	1.0024484	0.0024484
2	312126	1.002451328	0.002451328
2	312239	1.002452304	0.002452304
2	312354	1.00245328	0.00245328
2	312467	1.002454256	0.002454256
2	312802	1.002457184	0.002457184
2	312919	1.00245816	0.00245816
2	313034	1.002459136	0.002459136
2	313482	1.00246304	0.00246304
2	314723	1.002473776	0.002473776
2	314951	1.002475728	0.002475728
2	315177	1.00247768	0.00247768
2	315290	1.002478656	0.002478656
2	315405	1.002479632	0.002479632
2	315518	1.002480608	0.002480608
2	315742	1.00248256	0.00248256
2	315968	1.002484512	0.002484512
2	316083	1.002485488	0.002485488
2	316644	1.002490368	0.002490368
2	316757	1.002491344	0.002491344
2	316872	1.00249232	0.00249232
2	316985	1.002493296	0.002493296
2	317211	1.002495248	0.002495248
2	317324	1.002496224	0.002496224
2	317439	1.0024972	0.0024972
2	317552	1.002498176	0.002498176
2	317665	1.002499152	0.002499152
2	317803	1.002500128	0.002500128
2	318027	1.00250208	0.00250208
2	318253	1.002504032	0.002504032
2	318366	1.002505008	0.002505008
2	318940	1.002509888	0.002509888
2	319295	1.002512816	0.002512816
2	319753	1.00251672	0.00251672
2	319868	1.002517696	0.002517696
2	319983	1.002518672	0.002518672
2	320318	1.0025216	0.0025216
2	320544	1.002523552	0.002523552
2	320885	1.00252648	0.00252648
2	321337	1.002530384	0.002530384
2	321450	1.00253136	0.00253136
2	321787	1.002534288	0.002534288
2	321904	1.002535264	0.002535264
2	322017	1.00253624	0.00253624
2	322241	1.002538192	0.002538192
2	322354	1.002539168	0.002539168
2	322467	1.002540144	0.002540144
2	322580	1.00254112	0.00254112
2	322804	1.002543072	0.002543072
2	323030	1.002545024	0.002545024
2	324503	1.002557712	0.002557712
2	324729	1.002559664	0.002559664
2	324953	1.002561616	0.002561616
2	325066	1.002562592	0.002562592
2	325290	1.002564544	0.002564544
2	325518	1.002566496	0.002566496
2	325857	1.002569424	0.002569424
2	326083	1.002571376	0.002571376
2	326418	1.002574304	0.002574304
2	326648	1.002576256	0.002576256
2	327213	1.002581136	0.002581136
2	327778	1.002586016	0.002586016
2	328339	1.002590896	0.002590896
2	328904	1.002595776	0.002595776
2	329473	1.002600656	0.002600656
2	329699	1.002602608	0.002602608
2	330036	1.002605536	0.002605536
2	330264	1.002607488	0.002607488
2	330377	1.002608464	0.002608464
2	330827	1.002612368	0.002612368
2	330942	1.002613344	0.002613344
2	331392	1.002617248	0.002617248
2	331957	1.002622128	0.002622128
2	332522	1.002627008	0.002627008
2	334443	1.0026436	0.0026436
2	334895	1.002647504	0.002647504
2	335010	1.00264848	0.00264848
2	335123	1.002649456	0.002649456
2	335458	1.002652384	0.002652384
2	335688	1.002654336	0.002654336
2	336027	1.002657264	0.002657264
2	336590	1.002662144	0.002662144
2	337379	1.002668976	0.002668976
2	337946	1.002673856	0.002673856
2	338285	1.002676784	0.002676784
2	338848	1.002681664	0.002681664
2	339869	1.002690448	0.002690448
2	340432	1.002695328	0.002695328
2	340773	1.002698256	0.002698256
2	341336	1.002703136	0.002703136
2	344841	1.002733392	0.002733392
2	345067	1.002735344	0.002735344
2	345404	1.002738272	0.002738272
2	345632	1.002740224	0.002740224
2	347341	1.002754864	0.002754864
2	347906	1.002759744	0.002759744
2	349377	1.002772432	0.002772432
2	349603	1.002774384	0.002774384
2	349827	1.002776336	0.002776336
2	349942	1.002777312	0.002777312
2	350166	1.002779264	0.002779264
2	350279	1.00278024	0.00278024
2	350394	1.002781216	0.002781216
2	350842	1.00278512	0.00278512
2	351861	1.002793904	0.002793904
2	352426	1.002798784	0.002798784
2	354376	1.002815376	0.002815376
2	354828	1.00281928	0.00281928
2	354945	1.002820256	0.002820256
2	355058	1.002821232	0.002821232
2	355399	1.00282416	0.00282416
2	355625	1.002826112	0.002826112
2	355740	1.002827088	0.002827088
2	356303	1.002831968	0.002831968
2	357320	1.002840752	0.002840752
2	357887	1.002845632	0.002845632
2	359610	1.002860272	0.002860272
2	359881	1.002862224	0.002862224
2	360279	1.002865152	0.002865152
2	360413	1.002866128	0.002866128
2	360545	1.002867104	0.002867104
2	360679	1.00286808	0.00286808
2	361203	1.002871984	0.002871984
2	361467	1.002873936	0.002873936
2	362123	1.002878816	0.002878816
2	363104	1.002885648	0.002885648
2	363249	1.002886624	0.002886624
2	364230	1.002893456	0.002893456
2	365219	1.002900288	0.002900288
2	366182	1.00290712	0.00290712
2	366316	1.002908096	0.002908096
2	367238	1.002914928	0.002914928
2	371074	1.002943232	0.002943232
2	371998	1.002950064	0.002950064
2	373976	1.002964704	0.002964704
2	374896	1.002971536	0.002971536
2	376868	1.002986176	0.002986176
2	378712	1.00299984	0.00299984
2	379694	1.003006672	0.003006672
2	381408	1.00301936	0.00301936
2	382328	1.003026192	0.003026192
2	382990	1.003031072	0.003031072
2	383910	1.003037904	0.003037904
2	384306	1.003040832	0.003040832
2	385228	1.003047664	0.003047664
2	385630	1.003050592	0.003050592
2	386556	1.003057424	0.003057424
2	388538	1.003072064	0.003072064
2	389334	1.00307792	0.00307792
2	389466	1.003078896	0.003078896
2	390256	1.003084752	0.003084752
2	391984	1.00309744	0.00309744
2	392904	1.003104272	0.003104272
2	394884	1.003118912	0.003118912
2	395408	1.003122816	0.003122816
2	395811	1.003125744	0.003125744
2	396341	1.003129648	0.003129648
2	397562	1.003138432	0.003138432
2	398480	1.003145264	0.003145264
2	399660	1.003154048	0.003154048
2	400576	1.00316088	0.00316088
2	400710	1.003161856	0.003161856
2	400972	1.003163808	0.003163808
2	401624	1.003168688	0.003168688
2	401890	1.00317064	0.00317064
2	402816	1.003177472	0.003177472
2	403080	1.003179424	0.003179424
2	403604	1.003183328	0.003183328
2	403736	1.003184304	0.003184304
2	403998	1.003186256	0.003186256
2	404524	1.00319016	0.00319016
2	405188	1.00319504	0.00319504
2	405710	1.003198944	0.003198944
2	406106	1.003201872	0.003201872
2	406500	1.0032048	0.0032048
2	406632	1.003205776	0.003205776
2	407418	1.003211632	0.003211632
2	408614	1.003220416	0.003220416
2	409532	1.003227248	0.003227248
2	411636	1.003242864	0.003242864
2	414454	1.00326336	0.00326336
2	415366	1.003270192	0.003270192
2	418640	1.003294592	0.003294592
2	419560	1.003301424	0.003301424
2	419694	1.0033024	0.0033024
2	419956	1.003304352	0.003304352
2	420608	1.003309232	0.003309232
2	420870	1.003311184	0.003311184
2	421002	1.00331216	0.00331216
2	421916	1.003318992	0.003318992
2	422572	1.003323872	0.003323872
2	423488	1.003330704	0.003330704
2	423622	1.00333168	0.00333168
2	423884	1.003333632	0.003333632
2	424148	1.003335584	0.003335584
2	424540	1.003338512	0.003338512
2	424806	1.003340464	0.003340464
2	425070	1.003342416	0.003342416
2	425202	1.003343392	0.003343392
2	425470	1.003345344	0.003345344
2	426124	1.003350224	0.003350224
2	426388	1.003352176	0.003352176
2	426520	1.003353152	0.003353152
2	426782	1.003355104	0.003355104
2	427436	1.003359984	0.003359984
2	427698	1.003361936	0.003361936
2	427830	1.003362912	0.003362912
2	428742	1.003369744	0.003369744
2	429666	1.003376576	0.003376576
2	430586	1.003383408	0.003383408
2	430722	1.003384384	0.003384384
2	431508	1.00339024	0.00339024
2	431642	1.003391216	0.003391216
2	432436	1.003397072	0.003397072
2	434140	1.00340976	0.00340976
2	435062	1.003416592	0.003416592
2	435462	1.00341952	0.00341952
2	435724	1.003421472	0.003421472
2	436384	1.003426352	0.003426352
2	436652	1.003428304	0.003428304
2	437048	1.003431232	0.003431232
2	437576	1.003435136	0.003435136
2	437976	1.003438064	0.003438064
2	438372	1.003440992	0.003440992
2	438504	1.003441968	0.003441968
2	439288	1.003447824	0.003447824
2	439684	1.003450752	0.003450752
2	440606	1.003457584	0.003457584
2	440740	1.00345856	0.00345856
2	441006	1.003460512	0.003460512
2	441268	1.003462464	0.003462464
2	441660	1.003465392	0.003465392
2	441792	1.003466368	0.003466368
2	441926	1.003467344	0.003467344
2	442058	1.00346832	0.00346832
2	442190	1.003469296	0.003469296
2	442718	1.0034732	0.0034732
2	442852	1.003474176	0.003474176
2	442988	1.003475152	0.003475152
2	443122	1.003476128	0.003476128
2	443646	1.003480032	0.003480032
2	443782	1.003481008	0.003481008
2	444048	1.00348296	0.00348296
2	444572	1.003486864	0.003486864
2	444706	1.00348784	0.00348784
2	444970	1.003489792	0.003489792
2	445234	1.003491744	0.003491744
2	445626	1.003494672	0.003494672
2	445760	1.003495648	0.003495648
2	445894	1.003496624	0.003496624
2	446158	1.003498576	0.003498576
2	446580	1.003501504	0.003501504
2	446723	1.00350248	0.00350248
2	447134	1.003505408	0.003505408
2	447398	1.00350736	0.00350736
2	447530	1.003508336	0.003508336
2	447664	1.003509312	0.003509312
2	447928	1.003511264	0.003511264
2	448060	1.00351224	0.00351224
2	448194	1.003513216	0.003513216
2	448328	1.003514192	0.003514192
2	448590	1.003516144	0.003516144
2	448724	1.00351712	0.00351712
2	448858	1.003518096	0.003518096
2	449124	1.003520048	0.003520048
2	449650	1.003523952	0.003523952
2	450042	1.00352688	0.00352688
2	450828	1.003532736	0.003532736
2	450960	1.003533712	0.003533712
2	451752	1.003539568	0.003539568
2	452672	1.0035464	0.0035464
2	452938	1.003548352	0.003548352
2	453460	1.003552256	0.003552256
2	453594	1.003553232	0.003553232
2	453726	1.003554208	0.003554208
2	453858	1.003555184	0.003555184
2	454388	1.003559088	0.003559088
2	454656	1.00356104	0.00356104
2	455320	1.00356592	0.00356592
2	456238	1.003572752	0.003572752
2	456372	1.003573728	0.003573728
2	457290	1.00358056	0.00358056
2	458216	1.003587392	0.003587392
2	458748	1.003591296	0.003591296
2	459144	1.003594224	0.003594224
2	459276	1.0035952	0.0035952
2	459672	1.003598128	0.003598128
2	460202	1.003602032	0.003602032
2	460866	1.003606912	0.003606912
2	461786	1.003613744	0.003613744
2	464018	1.003630336	0.003630336
2	464280	1.003632288	0.003632288
2	464940	1.003637168	0.003637168
2	465206	1.00363912	0.00363912
2	466136	1.003645952	0.003645952
2	466404	1.003647904	0.003647904
2	466926	1.003651808	0.003651808
2	467058	1.003652784	0.003652784
2	467322	1.003654736	0.003654736
2	467456	1.003655712	0.003655712
2	467854	1.00365864	0.00365864
2	468380	1.003662544	0.003662544
2	469040	1.003667424	0.003667424
2	469308	1.003669376	0.003669376
2	469834	1.00367328	0.00367328
2	469970	1.003674256	0.003674256
2	470104	1.003675232	0.003675232
2	470238	1.003676208	0.003676208
2	470766	1.003680112	0.003680112
2	471032	1.003682064	0.003682064
2	471698	1.003686944	0.003686944
2	471966	1.003688896	0.003688896
2	472620	1.003693776	0.003693776
2	472888	1.003695728	0.003695728
2	473020	1.003696704	0.003696704
2	473942	1.003703536	0.003703536
2	474342	1.003706464	0.003706464
2	474606	1.003708416	0.003708416
2	474870	1.003710368	0.003710368
2	475264	1.003713296	0.003713296
2	475528	1.003715248	0.003715248
2	475792	1.0037172	0.0037172
2	475926	1.003718176	0.003718176
2	476854	1.003725008	0.003725008
2	477256	1.003727936	0.003727936
2	477526	1.003729888	0.003729888
2	478050	1.003733792	0.003733792
2	478184	1.003734768	0.003734768
2	478448	1.00373672	0.00373672
2	478580	1.003737696	0.003737696
2	478978	1.003740624	0.003740624
2	479510	1.003744528	0.003744528
2	480176	1.003749408	0.003749408
2	480479	1.00375136	0.00375136
2	480761	1.003753312	0.003753312
2	481176	1.00375624	0.00375624
2	481442	1.003758192	0.003758192
2	481576	1.003759168	0.003759168
2	481717	1.003760144	0.003760144
2	482392	1.003765024	0.003765024
2	482532	1.003766	0.003766
2	482928	1.003768928	0.003768928
2	483328	1.003771856	0.003771856
2	483726	1.003774784	0.003774784
2	483860	1.00377576	0.00377576
2	484258	1.003778688	0.003778688
2	484656	1.003781616	0.003781616
2	485048	1.003784544	0.003784544
2	485182	1.00378552	0.00378552
2	485842	1.0037904	0.0037904
2	485978	1.003791376	0.003791376
2	486640	1.003796256	0.003796256
2	486774	1.003797232	0.003797232
2	487568	1.003803088	0.003803088
2	487968	1.003806016	0.003806016
2	488496	1.00380992	0.00380992
2	488894	1.003812848	0.003812848
2	489294	1.003815776	0.003815776
2	489428	1.003816752	0.003816752
2	489564	1.003817728	0.003817728
2	489828	1.00381968	0.00381968
2	490220	1.003822608	0.003822608
2	490486	1.00382456	0.00382456
2	490750	1.003826512	0.003826512
2	490884	1.003827488	0.003827488
2	491804	1.00383432	0.00383432
2	492206	1.003837248	0.003837248
2	492474	1.0038392	0.0038392
2	492736	1.003841152	0.003841152
2	493130	1.00384408	0.00384408
2	493396	1.003846032	0.003846032
2	493530	1.003847008	0.003847008
2	493666	1.003847984	0.003847984
2	493800	1.00384896	0.00384896
2	494062	1.003850912	0.003850912
2	494456	1.00385384	0.00385384
2	494720	1.003855792	0.003855792
2	494988	1.003857744	0.003857744
2	495388	1.003860672	0.003860672
2	496316	1.003867504	0.003867504
2	496450	1.00386848	0.00386848
2	496716	1.003870432	0.003870432
2	496978	1.003872384	0.003872384
2	497372	1.003875312	0.003875312
2	497640	1.003877264	0.003877264
2	497908	1.003879216	0.003879216
2	498042	1.003880192	0.003880192
2	498310	1.003882144	0.003882144
2	498972	1.003887024	0.003887024
2	499238	1.003888976	0.003888976
2	499634	1.003891904	0.003891904
2	500560	1.003898736	0.003898736
2	500962	1.003901664	0.003901664
2	501884	1.003908496	0.003908496
2	502284	1.003911424	0.003911424
2	502546	1.003913376	0.003913376
2	503204	1.003918256	0.003918256
2	503472	1.003920208	0.003920208
2	503870	1.003923136	0.003923136
2	504798	1.003929968	0.003929968
2	505190	1.003932896	0.003932896
2	506110	1.003939728	0.003939728
2	508088	1.003954368	0.003954368
2	509014	1.0039612	0.0039612
2	511790	1.003981696	0.003981696
2	512716	1.003988528	0.003988528
2	516072	1.004012928	0.004012928
2	516992	1.00401976	0.00401976
2	517124	1.004020736	0.004020736
2	517388	1.004022688	0.004022688
2	518046	1.004027568	0.004027568
2	518316	1.00402952	0.00402952
2	520042	1.004042208	0.004042208
2	520964	1.00404904	0.00404904
2	521370	1.004051968	0.004051968
2	521640	1.00405392	0.00405392
2	522298	1.0040588	0.0040588
2	522568	1.004060752	0.004060752
2	522702	1.004061728	0.004061728
2	522972	1.00406368	0.00406368
2	523630	1.00406856	0.00406856
2	523898	1.004070512	0.004070512
2	524300	1.00407344	0.00407344
2	525226	1.004080272	0.004080272
2	525360	1.004081248	0.004081248
2	526282	1.00408808	0.00408808
2	527214	1.004094912	0.004094912
2	528136	1.004101744	0.004101744
2	528272	1.00410272	0.00410272
2	529060	1.004108576	0.004108576
2	529194	1.004109552	0.004109552
2	529984	1.004115408	0.004115408
2	531174	1.004124192	0.004124192
2	531700	1.004128096	0.004128096
2	532094	1.004131024	0.004131024
2	532626	1.004134928	0.004134928
2	533024	1.004137856	0.004137856
2	533294	1.004139808	0.004139808
2	533822	1.004143712	0.004143712
2	533956	1.004144688	0.004144688
2	534222	1.00414664	0.00414664
2	534616	1.004149568	0.004149568
2	534748	1.004150544	0.004150544
2	535542	1.0041564	0.0041564
2	535940	1.004159328	0.004159328
2	536730	1.004165184	0.004165184
2	536862	1.00416616	0.00416616
2	537256	1.004169088	0.004169088
2	537650	1.004172016	0.004172016
2	538176	1.00417592	0.00417592
2	538310	1.004176896	0.004176896
2	538572	1.004178848	0.004178848
2	538838	1.0041808	0.0041808
2	539232	1.004183728	0.004183728
2	539366	1.004184704	0.004184704
2	539498	1.00418568	0.00418568
2	539760	1.004187632	0.004187632
2	540288	1.004191536	0.004191536
2	540420	1.004192512	0.004192512
2	541208	1.004198368	0.004198368
2	541340	1.004199344	0.004199344
2	541484	1.00420032	0.00420032
2	541748	1.004202272	0.004202272
2	542144	1.0042052	0.0042052
2	542406	1.004207152	0.004207152
2	542538	1.004208128	0.004208128
2	542672	1.004209104	0.004209104
2	542808	1.00421008	0.00421008
2	543355	1.004213984	0.004213984
2	543489	1.00421496	0.00421496
2	543753	1.004216912	0.004216912
2	543885	1.004217888	0.004217888
2	544151	1.00421984	0.00421984
2	544285	1.004220816	0.004220816
2	544423	1.004221792	0.004221792
2	544689	1.004223744	0.004223744
2	544825	1.00422472	0.00422472
2	544959	1.004225696	0.004225696
2	545091	1.004226672	0.004226672
2	545353	1.004228624	0.004228624
2	545485	1.0042296	0.0042296
2	545623	1.004230576	0.004230576
2	545887	1.004232528	0.004232528
2	546289	1.004235456	0.004235456
2	546423	1.004236432	0.004236432
2	546555	1.004237408	0.004237408
2	546819	1.00423936	0.00423936
2	547083	1.004241312	0.004241312
2	547345	1.004243264	0.004243264
2	547479	1.00424424	0.00424424
2	547615	1.004245216	0.004245216
2	547749	1.004246192	0.004246192
2	547883	1.004247168	0.004247168
2	548015	1.004248144	0.004248144
2	548296	1.004250096	0.004250096
2	548437	1.004251072	0.004251072
2	548578	1.004252048	0.004252048
2	548857	1.004254	0.004254
2	549383	1.004257904	0.004257904
2	549517	1.00425888	0.00425888
2	549779	1.004260832	0.004260832
2	550437	1.004265712	0.004265712
2	550571	1.004266688	0.004266688
2	550707	1.004267664	0.004267664
2	551499	1.00427352	0.00427352
2	552683	1.004282304	0.004282304
2	553217	1.004286208	0.004286208
2	553485	1.00428816	0.00428816
2	553625	1.004289136	0.004289136
2	554153	1.00429304	0.00429304
2	554287	1.004294016	0.004294016
2	554421	1.004294992	0.004294992
2	554555	1.004295968	0.004295968
2	555213	1.004300848	0.004300848
2	555477	1.0043028	0.0043028
2	556137	1.00430768	0.00430768
2	557073	1.004314512	0.004314512
2	557205	1.004315488	0.004315488
2	558127	1.00432232	0.00432232
2	559055	1.004329152	0.004329152
2	559581	1.004333056	0.004333056
2	559847	1.004335008	0.004335008
2	559979	1.004335984	0.004335984
2	560111	1.00433696	0.00433696
2	560507	1.004339888	0.004339888
2	560639	1.004340864	0.004340864
2	560771	1.00434184	0.00434184
2	560903	1.004342816	0.004342816
2	561037	1.004343792	0.004343792
2	561563	1.004347696	0.004347696
2	561829	1.004349648	0.004349648
2	562493	1.004354528	0.004354528
2	562755	1.00435648	0.00435648
2	563413	1.00436136	0.00436136
2	563547	1.004362336	0.004362336
2	563679	1.004363312	0.004363312
2	564473	1.004369168	0.004369168
2	565141	1.004374048	0.004374048
2	565414	1.004376	0.004376
2	565940	1.004379904	0.004379904
2	566087	1.00438088	0.00438088
2	566221	1.004381856	0.004381856
2	566353	1.004382832	0.004382832
2	566485	1.004383808	0.004383808
2	566895	1.004386736	0.004386736
2	567163	1.004388688	0.004388688
2	567435	1.00439064	0.00439064
2	567831	1.004393568	0.004393568
2	568099	1.00439552	0.00439552
2	568363	1.004397472	0.004397472
2	568757	1.0044004	0.0044004
2	568889	1.004401376	0.004401376
2	569023	1.004402352	0.004402352
2	569289	1.004404304	0.004404304
2	569421	1.00440528	0.00440528
2	569821	1.004408208	0.004408208
2	570353	1.004412112	0.004412112
2	570751	1.00441504	0.00441504
2	571015	1.004416992	0.004416992
2	571541	1.004420896	0.004420896
2	571673	1.004421872	0.004421872
2	571805	1.004422848	0.004422848
2	571937	1.004423824	0.004423824
2	572069	1.0044248	0.0044248
2	572467	1.004427728	0.004427728
2	572733	1.00442968	0.00442968
2	573001	1.004431632	0.004431632
2	573921	1.004438464	0.004438464
2	574183	1.004440416	0.004440416
2	574841	1.004445296	0.004445296
2	574977	1.004446272	0.004446272
2	575113	1.004447248	0.004447248
2	575775	1.004452128	0.004452128
2	575909	1.004453104	0.004453104
2	576699	1.00445896	0.00445896
2	577093	1.004461888	0.004461888
2	577621	1.004465792	0.004465792
2	578019	1.00446872	0.00446872
2	578415	1.004471648	0.004471648
2	578553	1.004472624	0.004472624
2	579345	1.00447848	0.00447848
2	579999	1.00448336	0.00448336
2	580923	1.004490192	0.004490192
2	581321	1.00449312	0.00449312
2	581849	1.004497024	0.004497024
2	582249	1.004499952	0.004499952
2	582685	1.00450288	0.00450288
2	582828	1.004503856	0.004503856
2	582961	1.004504832	0.004504832
2	583223	1.004506784	0.004506784
2	583617	1.004509712	0.004509712
2	583879	1.004511664	0.004511664
2	584145	1.004513616	0.004513616
2	585599	1.004524352	0.004524352
2	585865	1.004526304	0.004526304
2	586129	1.004528256	0.004528256
2	586521	1.004531184	0.004531184
2	586787	1.004533136	0.004533136
2	587053	1.004535088	0.004535088
2	587187	1.004536064	0.004536064
2	587453	1.004538016	0.004538016
2	588113	1.004542896	0.004542896
2	588381	1.004544848	0.004544848
2	588781	1.004547776	0.004547776
2	589707	1.004554608	0.004554608
2	590109	1.004557536	0.004557536
2	591029	1.004564368	0.004564368
2	591425	1.004567296	0.004567296
2	591689	1.004569248	0.004569248
2	592347	1.004574128	0.004574128
2	592481	1.004575104	0.004575104
2	592619	1.00457608	0.00457608
2	593019	1.004579008	0.004579008
2	593417	1.004581936	0.004581936
2	593947	1.00458584	0.00458584
2	594347	1.004588768	0.004588768
2	595267	1.0045956	0.0045956
2	597243	1.00461024	0.00461024
2	597773	1.004614144	0.004614144
2	598039	1.004616096	0.004616096
2	598173	1.004617072	0.004617072
2	598701	1.004620976	0.004620976
2	598963	1.004622928	0.004622928
2	600683	1.004635616	0.004635616
2	600953	1.004637568	0.004637568
2	601609	1.004642448	0.004642448
2	601875	1.0046444	0.0046444
2	603583	1.004657088	0.004657088
2	604509	1.00466392	0.00466392
2	606231	1.004676608	0.004676608
2	606497	1.00467856	0.00467856
2	607153	1.00468344	0.00468344
2	607419	1.004685392	0.004685392
2	607551	1.004686368	0.004686368
2	608471	1.0046932	0.0046932
2	609137	1.00469808	0.00469808
2	610059	1.004704912	0.004704912
2	610195	1.004705888	0.004705888
2	611121	1.00471272	0.00471272
2	612059	1.004719552	0.004719552
2	612987	1.004726384	0.004726384
2	613119	1.00472736	0.00472736
2	614037	1.004734192	0.004734192
2	617923	1.004762496	0.004762496
2	618187	1.004764448	0.004764448
2	618841	1.004769328	0.004769328
2	619105	1.00477128	0.00477128
2	620287	1.004780064	0.004780064
2	620809	1.004783968	0.004783968
2	621203	1.004786896	0.004786896
2	621735	1.0047908	0.0047908
2	622133	1.004793728	0.004793728
2	622927	1.004799584	0.004799584
2	623063	1.00480056	0.00480056
2	623197	1.004801536	0.004801536
2	623463	1.004803488	0.004803488
2	623725	1.00480544	0.00480544
2	623857	1.004806416	0.004806416
2	624123	1.004808368	0.004808368
2	624255	1.004809344	0.004809344
2	624389	1.00481032	0.00481032
2	624653	1.004812272	0.004812272
2	625177	1.004816176	0.004816176
2	625835	1.004821056	0.004821056
2	626099	1.004823008	0.004823008
2	626363	1.00482496	0.00482496
2	626755	1.004827888	0.004827888
2	627021	1.00482984	0.00482984
2	627289	1.004831792	0.004831792
2	627423	1.004832768	0.004832768
2	627687	1.00483472	0.00483472
2	628347	1.0048396	0.0048396
2	628615	1.004841552	0.004841552
2	628747	1.004842528	0.004842528
2	629017	1.00484448	0.00484448
2	629541	1.004848384	0.004848384
2	629675	1.00484936	0.00484936
2	629807	1.004850336	0.004850336
2	629939	1.004851312	0.004851312
2	630333	1.00485424	0.00485424
2	630465	1.004855216	0.004855216
2	630729	1.004857168	0.004857168
2	631255	1.004861072	0.004861072
2	631387	1.004862048	0.004862048
2	631653	1.004864	0.004864
2	631915	1.004865952	0.004865952
2	632307	1.00486888	0.00486888
2	632441	1.004869856	0.004869856
2	632573	1.004870832	0.004870832
2	632835	1.004872784	0.004872784
2	632967	1.00487376	0.00487376
2	633233	1.004875712	0.004875712
2	633367	1.004876688	0.004876688
2	633895	1.004880592	0.004880592
2	634165	1.004882544	0.004882544
2	634299	1.00488352	0.00488352
2	634567	1.004885472	0.004885472
2	634829	1.004887424	0.004887424
2	635223	1.004890352	0.004890352
2	635355	1.004891328	0.004891328
2	635487	1.004892304	0.004892304
2	635619	1.00489328	0.00489328
2	635751	1.004894256	0.004894256
2	636275	1.00489816	0.00489816
2	636537	1.004900112	0.004900112
2	636933	1.00490304	0.00490304
2	637463	1.004906944	0.004906944
2	637857	1.004909872	0.004909872
2	638379	1.004913776	0.004913776
2	638513	1.004914752	0.004914752
2	639037	1.004918656	0.004918656
2	639301	1.004920608	0.004920608
2	639435	1.004921584	0.004921584
2	639965	1.004925488	0.004925488
2	640101	1.004926464	0.004926464
2	640233	1.00492744	0.00492744
2	640365	1.004928416	0.004928416
2	641019	1.004933296	0.004933296
2	641283	1.004935248	0.004935248
2	641947	1.004940128	0.004940128
2	642471	1.004944032	0.004944032
2	642865	1.00494696	0.00494696
2	642997	1.004947936	0.004947936
2	643391	1.004950864	0.004950864
2	643525	1.00495184	0.00495184
2	643917	1.004954768	0.004954768
2	644315	1.004957696	0.004957696
2	644449	1.004958672	0.004958672
2	644587	1.004959648	0.004959648
2	644851	1.0049616	0.0049616
2	645247	1.004964528	0.004964528
2	645381	1.004965504	0.004965504
2	645515	1.00496648	0.00496648
2	645649	1.004967456	0.004967456
2	645781	1.004968432	0.004968432
2	645913	1.004969408	0.004969408
2	646175	1.00497136	0.00497136
2	646307	1.004972336	0.004972336
2	646569	1.004974288	0.004974288
2	646833	1.00497624	0.00497624
2	647097	1.004978192	0.004978192
2	647231	1.004979168	0.004979168
2	647497	1.00498112	0.00498112
2	648153	1.004986	0.004986
2	648285	1.004986976	0.004986976
2	648417	1.004987952	0.004987952
2	648941	1.004991856	0.004991856
2	649075	1.004992832	0.004992832
2	649207	1.004993808	0.004993808
2	649601	1.004996736	0.004996736
2	649993	1.004999664	0.004999664
2	650153	1.00500064	0.00500064
2	650582	1.005003568	0.005003568
2	650722	1.005004544	0.005004544
2	650997	1.005006496	0.005006496
2	651131	1.005007472	0.005007472
2	651263	1.005008448	0.005008448
2	651673	1.005011376	0.005011376
2	651939	1.005013328	0.005013328
2	652206	1.00501528	0.00501528
2	652865	1.00502016	0.00502016
2	653133	1.005022112	0.005022112
2	653659	1.005026016	0.005026016
2	653791	1.005026992	0.005026992
2	654055	1.005028944	0.005028944
2	654187	1.00502992	0.00502992
2	654581	1.005032848	0.005032848
2	654979	1.005035776	0.005035776
2	655113	1.005036752	0.005036752
2	655249	1.005037728	0.005037728
2	655775	1.005041632	0.005041632
2	655909	1.005042608	0.005042608
2	656045	1.005043584	0.005043584
2	656177	1.00504456	0.00504456
2	656311	1.005045536	0.005045536
2	656577	1.005047488	0.005047488
2	656709	1.005048464	0.005048464
2	656841	1.00504944	0.00504944
2	656973	1.005050416	0.005050416
2	657239	1.005052368	0.005052368
2	657505	1.00505432	0.00505432
2	657769	1.005056272	0.005056272
2	657903	1.005057248	0.005057248
2	658697	1.005063104	0.005063104
2	658829	1.00506408	0.00506408
2	658963	1.005065056	0.005065056
2	659617	1.005069936	0.005069936
2	659749	1.005070912	0.005070912
2	659881	1.005071888	0.005071888
2	660671	1.005077744	0.005077744
2	660807	1.00507872	0.00507872
2	661335	1.005082624	0.005082624
2	661597	1.005084576	0.005084576
2	661731	1.005085552	0.005085552
2	661865	1.005086528	0.005086528
2	662261	1.005089456	0.005089456
2	662393	1.005090432	0.005090432
2	662525	1.005091408	0.005091408
2	662657	1.005092384	0.005092384
2	662789	1.00509336	0.00509336
2	663317	1.005097264	0.005097264
2	663585	1.005099216	0.005099216
2	664251	1.005104096	0.005104096
2	664775	1.005108	0.005108
2	665169	1.005110928	0.005110928
2	665303	1.005111904	0.005111904
2	665697	1.005114832	0.005114832
2	666227	1.005118736	0.005118736
2	667161	1.005125568	0.005125568
2	667423	1.00512752	0.00512752
2	667689	1.005129472	0.005129472
2	667953	1.005131424	0.005131424
2	668087	1.0051324	0.0051324
2	668219	1.005133376	0.005133376
2	668351	1.005134352	0.005134352
2	668615	1.005136304	0.005136304
2	668881	1.005138256	0.005138256
2	669149	1.005140208	0.005140208
2	670331	1.005148992	0.005148992
2	670595	1.005150944	0.005150944
2	670859	1.005152896	0.005152896
2	671253	1.005155824	0.005155824
2	671517	1.005157776	0.005157776
2	671783	1.005159728	0.005159728
2	673231	1.005170464	0.005170464
2	673495	1.005172416	0.005172416
2	674153	1.005177296	0.005177296
2	674417	1.005179248	0.005179248
2	675343	1.00518608	0.00518608
2	675867	1.005189984	0.005189984
2	676131	1.005191936	0.005191936
2	676265	1.005192912	0.005192912
2	676397	1.005193888	0.005193888
2	676791	1.005196816	0.005196816
2	677053	1.005198768	0.005198768
2	677319	1.00520072	0.00520072
2	677977	1.0052056	0.0052056
2	678769	1.005211456	0.005211456
2	678901	1.005212432	0.005212432
2	679033	1.005213408	0.005213408
2	679297	1.00521536	0.00521536
2	679693	1.005218288	0.005218288
2	679955	1.00522024	0.00522024
2	680219	1.005222192	0.005222192
2	680877	1.005227072	0.005227072
2	681795	1.005233904	0.005233904
2	681929	1.00523488	0.00523488
2	682845	1.005241712	0.005241712
2	684595	1.0052544	0.0052544
2	684857	1.005256352	0.005256352
2	685513	1.005261232	0.005261232
2	685777	1.005263184	0.005263184
2	685909	1.00526416	0.00526416
2	686827	1.005270992	0.005270992
2	687489	1.005275872	0.005275872
2	688405	1.005282704	0.005282704
2	688539	1.00528368	0.00528368
2	689457	1.005290512	0.005290512
2	690381	1.005297344	0.005297344
2	691299	1.005304176	0.005304176
2	691431	1.005305152	0.005305152
2	691955	1.005309056	0.005309056
2	692349	1.005311984	0.005311984
2	692877	1.005315888	0.005315888
2	694061	1.005324672	0.005324672
2	694979	1.005331504	0.005331504
2	697217	1.005348096	0.005348096
2	697481	1.005350048	0.005350048
2	698137	1.005354928	0.005354928
2	698405	1.00535688	0.00535688
2	699329	1.005363712	0.005363712
2	699599	1.005365664	0.005365664
2	700123	1.005369568	0.005369568
2	700255	1.005370544	0.005370544
2	700521	1.005372496	0.005372496
2	701047	1.0053764	0.0053764
2	702239	1.005385184	0.005385184
2	703029	1.00539104	0.00539104
2	703163	1.005392016	0.005392016
2	703953	1.005397872	0.005397872
2	705139	1.005406656	0.005406656
2	706059	1.005413488	0.005413488
2	709077	1.005435936	0.005435936
2	710001	1.005442768	0.005442768
2	711719	1.005455456	0.005455456
2	712633	1.005462288	0.005462288
2	714613	1.005476928	0.005476928
2	715143	1.005480832	0.005480832
2	715537	1.00548376	0.00548376
2	716061	1.005487664	0.005487664
2	719667	1.005514016	0.005514016
2	720459	1.005519872	0.005519872
2	720595	1.005520848	0.005520848
2	720729	1.005521824	0.005521824
2	721381	1.005526704	0.005526704
2	721649	1.005528656	0.005528656
2	721783	1.005529632	0.005529632
2	722307	1.005533536	0.005533536
2	722705	1.005536464	0.005536464
2	723235	1.005540368	0.005540368
2	723369	1.005541344	0.005541344
2	724289	1.005548176	0.005548176
2	724421	1.005549152	0.005549152
2	725211	1.005555008	0.005555008
2	725343	1.005555984	0.005555984
2	725739	1.005558912	0.005558912
2	726139	1.00556184	0.00556184
2	726271	1.005562816	0.005562816
2	726663	1.005565744	0.005565744
2	727187	1.005569648	0.005569648
2	727319	1.005570624	0.005570624
2	728231	1.005577456	0.005577456
2	730987	1.005597952	0.005597952
2	731255	1.005599904	0.005599904
2	731921	1.005604784	0.005604784
2	732187	1.005606736	0.005606736
2	732319	1.005607712	0.005607712
2	733258	1.005614544	0.005614544
2	733912	1.005619424	0.005619424
2	734446	1.005623328	0.005623328
2	734857	1.005626256	0.005626256
2	734989	1.005627232	0.005627232
2	735394	1.00563016	0.00563016
2	735920	1.005634064	0.005634064
2	736858	1.005640896	0.005640896
2	737120	1.005642848	0.005642848
2	737780	1.005647728	0.005647728
2	737914	1.005648704	0.005648704
2	738048	1.00564968	0.00564968
2	738446	1.005652608	0.005652608
2	738838	1.005655536	0.005655536
2	739364	1.00565944	0.00565944
2	740020	1.00566432	0.00566432
2	740944	1.005671152	0.005671152
2	743708	1.005691648	0.005691648
2	743974	1.0056936	0.0056936
2	744632	1.00569848	0.00569848
2	744898	1.005700432	0.005700432
2	745030	1.005701408	0.005701408
2	745952	1.00570824	0.00570824
2	746086	1.005709216	0.005709216
2	746612	1.00571312	0.00571312
2	747530	1.005719952	0.005719952
2	748578	1.00572776	0.00572776
2	750028	1.005738496	0.005738496
2	750164	1.005739472	0.005739472
2	750688	1.005743376	0.005743376
2	751082	1.005746304	0.005746304
2	751348	1.005748256	0.005748256
2	751768	1.005751184	0.005751184
2	752320	1.005755088	0.005755088
2	752454	1.005756064	0.005756064
2	755214	1.00577656	0.00577656
2	755478	1.005778512	0.005778512
2	755876	1.00578144	0.00578144
2	757198	1.0057912	0.0057912
2	757330	1.005792176	0.005792176
2	757594	1.005794128	0.005794128
2	757858	1.00579608	0.00579608
2	759964	1.005811696	0.005811696
2	761276	1.005821456	0.005821456
2	762982	1.005834144	0.005834144
2	763376	1.005837072	0.005837072
2	766796	1.005862448	0.005862448
2	769042	1.00587904	0.00587904
2	769438	1.005881968	0.005881968
2	770358	1.0058888	0.0058888
2	772856	1.005907344	0.005907344
2	773254	1.005910272	0.005910272
2	774574	1.005920032	0.005920032
2	778650	1.005950288	0.005950288
2	779574	1.00595712	0.00595712
2	780098	1.005961024	0.005961024
2	780882	1.00596688	0.00596688
2	781018	1.005967856	0.005967856
2	781412	1.005970784	0.005970784
2	782206	1.00597664	0.00597664
2	783522	1.0059864	0.0059864
2	784308	1.005992256	0.005992256
2	785379	1.006000064	0.006000064
2	785661	1.006002016	0.006002016
2	786720	1.006009824	0.006009824
2	787512	1.00601568	0.00601568
2	788172	1.00602056	0.00602056
2	788834	1.00602544	0.00602544
2	791196	1.006043008	0.006043008
2	792504	1.006052768	0.006052768
2	793164	1.006057648	0.006057648
2	793298	1.006058624	0.006058624
2	793432	1.0060596	0.0060596
2	794618	1.006068384	0.006068384
2	795400	1.00607424	0.00607424
2	795798	1.006077168	0.006077168
2	796588	1.006083024	0.006083024
2	799078	1.006101568	0.006101568
2	799214	1.006102544	0.006102544
2	800400	1.006111328	0.006111328
2	801578	1.006120112	0.006120112
2	801840	1.006122064	0.006122064
2	803284	1.0061328	0.0061328
2	804200	1.006139632	0.006139632
2	804336	1.006140608	0.006140608
2	804600	1.00614256	0.00614256
2	805648	1.006150368	0.006150368
2	807616	1.006165008	0.006165008
2	808536	1.00617184	0.00617184
2	809194	1.00617672	0.00617672
2	809850	1.0061816	0.0061816
2	810116	1.006183552	0.006183552
2	811172	1.00619136	0.00619136
2	811438	1.006193312	0.006193312
2	812488	1.00620112	0.00620112
2	814204	1.006213808	0.006213808
2	814338	1.006214784	0.006214784
2	814470	1.00621576	0.00621576
2	815258	1.006221616	0.006221616
2	815390	1.006222592	0.006222592
2	815654	1.006224544	0.006224544
2	816708	1.006232352	0.006232352
2	816842	1.006233328	0.006233328
2	817890	1.006241136	0.006241136
2	819521	1.006252848	0.006252848
2	820200	1.006257728	0.006257728
2	820332	1.006258704	0.006258704
2	821404	1.006266512	0.006266512
2	821538	1.006267488	0.006267488
2	821802	1.00626944	0.00626944
2	822198	1.006272368	0.006272368
2	822330	1.006273344	0.006273344
2	823120	1.0062792	0.0062792
2	823646	1.006283104	0.006283104
2	823778	1.00628408	0.00628408
2	824434	1.00628896	0.00628896
2	825486	1.006296768	0.006296768
2	825618	1.006297744	0.006297744
2	825750	1.00629872	0.00629872
2	825882	1.006299696	0.006299696
2	826014	1.006300672	0.006300672
2	826406	1.0063036	0.0063036
2	826540	1.006304576	0.006304576
2	826804	1.006306528	0.006306528
2	827328	1.006310432	0.006310432
2	827594	1.006312384	0.006312384
2	827858	1.006314336	0.006314336
2	828512	1.006319216	0.006319216
2	828912	1.006322144	0.006322144
2	829696	1.006328	0.006328
2	829830	1.006328976	0.006328976
2	830094	1.006330928	0.006330928
2	831014	1.00633776	0.00633776
2	831282	1.006339712	0.006339712
2	831806	1.006343616	0.006343616
2	831940	1.006344592	0.006344592
2	832336	1.00634752	0.00634752
2	832470	1.006348496	0.006348496
2	832604	1.006349472	0.006349472
2	832736	1.006350448	0.006350448
2	832868	1.006351424	0.006351424
2	833134	1.006353376	0.006353376
2	833396	1.006355328	0.006355328
2	833660	1.00635728	0.00635728
2	834186	1.006361184	0.006361184
2	834712	1.006365088	0.006365088
2	835502	1.006370944	0.006370944
2	836158	1.006375824	0.006375824
2	836684	1.006379728	0.006379728
2	836816	1.006380704	0.006380704
2	837472	1.006385584	0.006385584
2	837606	1.00638656	0.00638656
2	837740	1.006387536	0.006387536
2	838136	1.006390464	0.006390464
2	838920	1.00639632	0.00639632
2	839454	1.006400224	0.006400224
2	840108	1.006405104	0.006405104
2	840904	1.00641096	0.00641096
2	841690	1.006416816	0.006416816
2	841958	1.006418768	0.006418768
2	842880	1.0064256	0.0064256
2	843406	1.006429504	0.006429504
2	843540	1.00643048	0.00643048
2	843934	1.006433408	0.006433408
2	844202	1.00643536	0.00643536
2	844334	1.006436336	0.006436336
2	844730	1.006439264	0.006439264
2	845258	1.006443168	0.006443168
2	845522	1.00644512	0.00644512
2	845922	1.006448048	0.006448048
2	846846	1.00645488	0.00645488
2	847762	1.006461712	0.006461712
2	848682	1.006468544	0.006468544
2	849992	1.006478304	0.006478304
2	850784	1.00648416	0.00648416
2	851974	1.006492944	0.006492944
2	852108	1.00649392	0.00649392
2	853321	1.006502704	0.006502704
2	853998	1.006507584	0.006507584
2	854524	1.006511488	0.006511488
2	855316	1.006517344	0.006517344
2	855842	1.006521248	0.006521248
2	855976	1.006522224	0.006522224
2	856634	1.006527104	0.006527104
2	857688	1.006534912	0.006534912
2	857954	1.006536864	0.006536864
2	859008	1.006544672	0.006544672
2	859272	1.006546624	0.006546624
2	859404	1.0065476	0.0065476
2	860584	1.006556384	0.006556384
2	861768	1.006565168	0.006565168
2	861900	1.006566144	0.006566144
2	863222	1.006575904	0.006575904
2	863882	1.006580784	0.006580784
2	864412	1.006584688	0.006584688
2	865070	1.006589568	0.006589568
2	866122	1.006597376	0.006597376
2	866390	1.006599328	0.006599328
2	866524	1.006600304	0.006600304
2	867444	1.006607136	0.006607136
2	867840	1.006610064	0.006610064
2	868240	1.006612992	0.006612992
2	868768	1.006616896	0.006616896
2	869556	1.006622752	0.006622752
2	869956	1.00662568	0.00662568
2	870090	1.006626656	0.006626656
2	870354	1.006628608	0.006628608
2	870488	1.006629584	0.006629584
2	871674	1.006638368	0.006638368
2	872332	1.006643248	0.006643248
2	872466	1.006644224	0.006644224
2	872602	1.0066452	0.0066452
2	872996	1.006648128	0.006648128
2	873788	1.006653984	0.006653984
2	874056	1.006655936	0.006655936
2	874320	1.006657888	0.006657888
2	874976	1.006662768	0.006662768
2	875372	1.006665696	0.006665696
2	875506	1.006666672	0.006666672
2	875770	1.006668624	0.006668624
2	876698	1.006675456	0.006675456
2	877228	1.00667936	0.00667936
2	877626	1.006682288	0.006682288
2	877890	1.00668424	0.00668424
2	878024	1.006685216	0.006685216
2	878160	1.006686192	0.006686192
2	878292	1.006687168	0.006687168
2	878424	1.006688144	0.006688144
2	878558	1.00668912	0.00668912
2	878950	1.006692048	0.006692048
2	879610	1.006696928	0.006696928
2	879876	1.00669888	0.00669888
2	880270	1.006701808	0.006701808
2	880928	1.006706688	0.006706688
2	881062	1.006707664	0.006707664
2	881194	1.00670864	0.00670864
2	881462	1.006710592	0.006710592
2	881594	1.006711568	0.006711568
2	882252	1.006716448	0.006716448
2	882520	1.0067184	0.0067184
2	882782	1.006720352	0.006720352
2	883704	1.006727184	0.006727184
2	883836	1.00672816	0.00672816
2	883968	1.006729136	0.006729136
2	884104	1.006730112	0.006730112
2	884238	1.006731088	0.006731088
2	885422	1.006739872	0.006739872
2	886080	1.006744752	0.006744752
2	886344	1.006746704	0.006746704
2	886608	1.006748656	0.006748656
2	886742	1.006749632	0.006749632
2	888120	1.006759392	0.006759392
2	888384	1.006761344	0.006761344
2	888782	1.006764272	0.006764272
2	889702	1.006771104	0.006771104
2	890096	1.006774032	0.006774032
2	892208	1.006789648	0.006789648
2	892602	1.006792576	0.006792576
2	893792	1.00680136	0.00680136
2	893924	1.006802336	0.006802336
2	895642	1.006815024	0.006815024
2	896306	1.006819904	0.006819904
2	897620	1.006829664	0.006829664
2	898282	1.006834544	0.006834544
2	898812	1.006838448	0.006838448
2	899076	1.0068404	0.0068404
2	899872	1.006846256	0.006846256
2	900536	1.006851136	0.006851136
2	901462	1.006857968	0.006857968
2	901594	1.006858944	0.006858944
2	901728	1.00685992	0.00685992
2	901862	1.006860896	0.006860896
2	902258	1.006863824	0.006863824
2	902524	1.006865776	0.006865776
2	902920	1.006868704	0.006868704
2	904113	1.006877488	0.006877488
2	904916	1.006883344	0.006883344
2	905856	1.006890176	0.006890176
2	905992	1.006891152	0.006891152
2	906256	1.006893104	0.006893104
2	906784	1.006897008	0.006897008
2	907178	1.006899936	0.006899936
2	907314	1.006900912	0.006900912
2	907448	1.006901888	0.006901888
2	907580	1.006902864	0.006902864
2	908370	1.00690872	0.00690872
2	908766	1.006911648	0.006911648
2	908900	1.006912624	0.006912624
2	909958	1.006920432	0.006920432
2	910224	1.006922384	0.006922384
2	910492	1.006924336	0.006924336
2	911020	1.00692824	0.00692824
2	911684	1.00693312	0.00693312
2	912342	1.006938	0.006938
2	912740	1.006940928	0.006940928
2	912876	1.006941904	0.006941904
2	913008	1.00694288	0.00694288
[...]
22	8362468	1.06189992	0.06189992
22	8364968	1.061918464	0.061918464
22	8365366	1.061921392	0.061921392
22	8367076	1.06193408	0.06193408
22	8367470	1.061937008	0.061937008
22	8367602	1.061937984	0.061937984
22	8367996	1.061940912	0.061940912
22	8368396	1.06194384	0.06194384
22	8368660	1.061945792	0.061945792
22	8368792	1.061946768	0.061946768
22	8369058	1.06194872	0.06194872
22	8369190	1.061949696	0.061949696
22	8369588	1.061952624	0.061952624
22	8369724	1.0619536	0.0619536
22	8370118	1.061956528	0.061956528
22	8370772	1.061961408	0.061961408
22	8371164	1.061964336	0.061964336
22	8372344	1.06197312	0.06197312
22	8372608	1.061975072	0.061975072
22	8372740	1.061976048	0.061976048
22	8373002	1.061978	0.061978
22	8373924	1.061984832	0.061984832
22	8374318	1.06198776	0.06198776
22	8376321	1.0620024	0.0620024
22	8376736	1.062005328	0.062005328
22	8377400	1.062010208	0.062010208
22	8377666	1.06201216	0.06201216
22	8377798	1.062013136	0.062013136
22	8377930	1.062014112	0.062014112
22	8378064	1.062015088	0.062015088
22	8378328	1.06201704	0.06201704
22	8378462	1.062018016	0.062018016
22	8378862	1.062020944	0.062020944
22	8378998	1.06202192	0.06202192
22	8379392	1.062024848	0.062024848
22	8379788	1.062027776	0.062027776
22	8380054	1.062029728	0.062029728
22	8380188	1.062030704	0.062030704
22	8380454	1.062032656	0.062032656
22	8380586	1.062033632	0.062033632
22	8380980	1.06203656	0.06203656
22	8381906	1.062043392	0.062043392
22	8382168	1.062045344	0.062045344
22	8382300	1.06204632	0.06204632
22	8382570	1.062048272	0.062048272
22	8382702	1.062049248	0.062049248
22	8382970	1.0620512	0.0620512
22	8383102	1.062052176	0.062052176
22	8383238	1.062053152	0.062053152
22	8383370	1.062054128	0.062054128
22	8383634	1.06205608	0.06205608
22	8384030	1.062059008	0.062059008
22	8384296	1.06206096	0.06206096
22	8384428	1.062061936	0.062061936
22	8384694	1.062063888	0.062063888
22	8384826	1.062064864	0.062064864
22	8385220	1.062067792	0.062067792
22	8386010	1.062073648	0.062073648
22	8386144	1.062074624	0.062074624
22	8386408	1.062076576	0.062076576
22	8386542	1.062077552	0.062077552
22	8386806	1.062079504	0.062079504
22	8386940	1.06208048	0.06208048
22	8387338	1.062083408	0.062083408
22	8388128	1.062089264	0.062089264
22	8388524	1.062092192	0.062092192
22	8388918	1.06209512	0.06209512
22	8389574	1.0621	0.0621
22	8389840	1.062101952	0.062101952
22	8389974	1.062102928	0.062102928
22	8390370	1.062105856	0.062105856
22	8390766	1.062108784	0.062108784
22	8390898	1.06210976	0.06210976
22	8391296	1.062112688	0.062112688
22	8392356	1.062120496	0.062120496
22	8393800	1.062131232	0.062131232
22	8394196	1.06213416	0.06213416
22	8395376	1.062142944	0.062142944
22	8395772	1.062145872	0.062145872
22	8396696	1.062152704	0.062152704
22	8396964	1.062154656	0.062154656
22	8397098	1.062155632	0.062155632
22	8397232	1.062156608	0.062156608
22	8397364	1.062157584	0.062157584
22	8397628	1.062159536	0.062159536
22	8400126	1.06217808	0.06217808
22	8400520	1.062181008	0.062181008
22	8400652	1.062181984	0.062181984
22	8401052	1.062184912	0.062184912
22	8402760	1.0621976	0.0621976
22	8403026	1.062199552	0.062199552
22	8403158	1.062200528	0.062200528
22	8403422	1.06220248	0.06220248
22	8403818	1.062205408	0.062205408
22	8404214	1.062208336	0.062208336
22	8404348	1.062209312	0.062209312
22	8404746	1.06221224	0.06221224
22	8405140	1.062215168	0.062215168
22	8405408	1.06221712	0.06221712
22	8405540	1.062218096	0.062218096
22	8405808	1.062220048	0.062220048
22	8405942	1.062221024	0.062221024
22	8406338	1.062223952	0.062223952
22	8407522	1.062232736	0.062232736
22	8407918	1.062235664	0.062235664
22	8409238	1.062245424	0.062245424
22	8411268	1.062260064	0.062260064
22	8411532	1.062262016	0.062262016
22	8411664	1.062262992	0.062262992
22	8411932	1.062264944	0.062264944
22	8413642	1.062277632	0.062277632
22	8414038	1.06228056	0.06228056
22	8414172	1.062281536	0.062281536
22	8414566	1.062284464	0.062284464
22	8414964	1.062287392	0.062287392
22	8415360	1.06229032	0.06229032
22	8415624	1.062292272	0.062292272
22	8417328	1.06230496	0.06230496
22	8417596	1.062306912	0.062306912
22	8417992	1.06230984	0.06230984
22	8418650	1.06231472	0.06231472
22	8419042	1.062317648	0.062317648
22	8419710	1.062322528	0.062322528
22	8420106	1.062325456	0.062325456
22	8420238	1.062326432	0.062326432
22	8420638	1.06232936	0.06232936
22	8421818	1.062338144	0.062338144
22	8422210	1.062341072	0.062341072
22	8422868	1.062345952	0.062345952
22	8423266	1.06234888	0.06234888
22	8423400	1.062349856	0.062349856
22	8423796	1.062352784	0.062352784
22	8424456	1.062357664	0.062357664
22	8424856	1.062360592	0.062360592
22	8424990	1.062361568	0.062361568
22	8425388	1.062364496	0.062364496
22	8425524	1.062365472	0.062365472
22	8425926	1.0623684	0.0623684
22	8426586	1.06237328	0.06237328
22	8426984	1.062376208	0.062376208
22	8427116	1.062377184	0.062377184
22	8427512	1.062380112	0.062380112
22	8427648	1.062381088	0.062381088
22	8428044	1.062384016	0.062384016
22	8428706	1.062388896	0.062388896
22	8428974	1.062390848	0.062390848
22	8429106	1.062391824	0.062391824
22	8429370	1.062393776	0.062393776
22	8430560	1.06240256	0.06240256
22	8430954	1.062405488	0.062405488
22	8431350	1.062408416	0.062408416
22	8431748	1.062411344	0.062411344
22	8431884	1.06241232	0.06241232
22	8432278	1.062415248	0.062415248
22	8432540	1.0624172	0.0624172
22	8432936	1.062420128	0.062420128
22	8433332	1.062423056	0.062423056
22	8433466	1.062424032	0.062424032
22	8433860	1.06242696	0.06242696
22	8433992	1.062427936	0.062427936
22	8434388	1.062430864	0.062430864
22	8435046	1.062435744	0.062435744
22	8435442	1.062438672	0.062438672
22	8436104	1.062443552	0.062443552
22	8436498	1.06244648	0.06244648
22	8438738	1.062463072	0.062463072
22	8439004	1.062465024	0.062465024
22	8439136	1.062466	0.062466
22	8439398	1.062467952	0.062467952
22	8440320	1.062474784	0.062474784
22	8440718	1.062477712	0.062477712
22	8441114	1.06248064	0.06248064
22	8441508	1.062483568	0.062483568
22	8442426	1.0624904	0.0624904
22	8442818	1.062493328	0.062493328
22	8446724	1.062521632	0.062521632
22	8447122	1.06252456	0.06252456
22	8447386	1.062526512	0.062526512
22	8449374	1.062541152	0.062541152
22	8449770	1.06254408	0.06254408
22	8450166	1.062547008	0.062547008
22	8450558	1.062549936	0.062549936
22	8450952	1.062552864	0.062552864
22	8451350	1.062555792	0.062555792
22	8451484	1.062556768	0.062556768
22	8451882	1.062559696	0.062559696
22	8453592	1.062572384	0.062572384
22	8453990	1.062575312	0.062575312
22	8458058	1.062605568	0.062605568
22	8458458	1.062608496	0.062608496
22	8459906	1.062619232	0.062619232
22	8460300	1.06262216	0.06262216
22	8461222	1.062628992	0.062628992
22	8461486	1.062630944	0.062630944
22	8461622	1.06263192	0.06263192
22	8461884	1.062633872	0.062633872
22	8462282	1.0626368	0.0626368
22	8462676	1.062639728	0.062639728
22	8465176	1.062658272	0.062658272
22	8465568	1.0626612	0.0626612
22	8465700	1.062662176	0.062662176
22	8466092	1.062665104	0.062665104
22	8466224	1.06266608	0.06266608
22	8466620	1.062669008	0.062669008
22	8466754	1.062669984	0.062669984
22	8467156	1.062672912	0.062672912
22	8467288	1.062673888	0.062673888
22	8467684	1.062676816	0.062676816
22	8468472	1.062682672	0.062682672
22	8468868	1.0626856	0.0626856
22	8469264	1.062688528	0.062688528
22	8469398	1.062689504	0.062689504
22	8469792	1.062692432	0.062692432
22	8470984	1.062701216	0.062701216
22	8471380	1.062704144	0.062704144
22	8471512	1.06270512	0.06270512
22	8471908	1.062708048	0.062708048
22	8472042	1.062709024	0.062709024
22	8472440	1.062711952	0.062711952
22	8472574	1.062712928	0.062712928
22	8472972	1.062715856	0.062715856
22	8473106	1.062716832	0.062716832
22	8473370	1.062718784	0.062718784
22	8473504	1.06271976	0.06271976
22	8473636	1.062720736	0.062720736
22	8473768	1.062721712	0.062721712
22	8474032	1.062723664	0.062723664
22	8474954	1.062730496	0.062730496
22	8475218	1.062732448	0.062732448
22	8475352	1.062733424	0.062733424
22	8475618	1.062735376	0.062735376
22	8475750	1.062736352	0.062736352
22	8476150	1.06273928	0.06273928
22	8476282	1.062740256	0.062740256
22	8476676	1.062743184	0.062743184
22	8477330	1.062748064	0.062748064
22	8477611	1.062750016	0.062750016
22	8477754	1.062750992	0.062750992
22	8478040	1.062752944	0.062752944
22	8478446	1.062755872	0.062755872
22	8478838	1.0627588	0.0627588
22	8479230	1.062761728	0.062761728
22	8479628	1.062764656	0.062764656
22	8480028	1.062767584	0.062767584
22	8480422	1.062770512	0.062770512
22	8480816	1.06277344	0.06277344
22	8481080	1.062775392	0.062775392
22	8481478	1.06277832	0.06277832
22	8481612	1.062779296	0.062779296
22	8482010	1.062782224	0.062782224
22	8482668	1.062787104	0.062787104
22	8483064	1.062790032	0.062790032
22	8484246	1.062798816	0.062798816
22	8484644	1.062801744	0.062801744
22	8485828	1.062810528	0.062810528
22	8486220	1.062813456	0.062813456
22	8488458	1.062830048	0.062830048
22	8488856	1.062832976	0.062832976
22	8488990	1.062833952	0.062833952
22	8489386	1.06283688	0.06283688
22	8489784	1.062839808	0.062839808
22	8490050	1.06284176	0.06284176
22	8490186	1.062842736	0.062842736
22	8490450	1.062844688	0.062844688
22	8491762	1.062854448	0.062854448
22	8493200	1.062865184	0.062865184
22	8493596	1.062868112	0.062868112
22	8493992	1.06287104	0.06287104
22	8494386	1.062873968	0.062873968
22	8494784	1.062876896	0.062876896
22	8495184	1.062879824	0.062879824
22	8495972	1.06288568	0.06288568
22	8496108	1.062886656	0.062886656
22	8496372	1.062888608	0.062888608
22	8496504	1.062889584	0.062889584
22	8496768	1.062891536	0.062891536
22	8500048	1.062915936	0.062915936
22	8500442	1.062918864	0.062918864
22	8506622	1.062964736	0.062964736
22	8507020	1.062967664	0.062967664
22	8507416	1.062970592	0.062970592
22	8507814	1.06297352	0.06297352
22	8508480	1.0629784	0.0629784
22	8508876	1.062981328	0.062981328
22	8509008	1.062982304	0.062982304
22	8509406	1.062985232	0.062985232
22	8509540	1.062986208	0.062986208
22	8509938	1.062989136	0.062989136
22	8510856	1.062995968	0.062995968
22	8511118	1.06299792	0.06299792
22	8511252	1.062998896	0.062998896
22	8511549	1.063000848	0.063000848
22	8511692	1.063001824	0.063001824
22	8512112	1.063004752	0.063004752
22	8512244	1.063005728	0.063005728
22	8512638	1.063008656	0.063008656
22	8513317	1.063013536	0.063013536
22	8513583	1.063015488	0.063015488
22	8513717	1.063016464	0.063016464
22	8513981	1.063018416	0.063018416
22	8515957	1.063033056	0.063033056
22	8516351	1.063035984	0.063035984
22	8517543	1.063044768	0.063044768
22	8517939	1.063047696	0.063047696
22	8519913	1.063062336	0.063062336
22	8520307	1.063065264	0.063065264
22	8520965	1.063070144	0.063070144
22	8522019	1.063077952	0.063077952
22	8522415	1.06308088	0.06308088
22	8522811	1.063083808	0.063083808
22	8523075	1.06308576	0.06308576
22	8523209	1.063086736	0.063086736
22	8523603	1.063089664	0.063089664
22	8523999	1.063092592	0.063092592
22	8526505	1.063111136	0.063111136
22	8526897	1.063114064	0.063114064
22	8527819	1.063120896	0.063120896
22	8528081	1.063122848	0.063122848
22	8528217	1.063123824	0.063123824
22	8528488	1.063125776	0.063125776
22	8529161	1.063130656	0.063130656
22	8529425	1.063132608	0.063132608
22	8529557	1.063133584	0.063133584
22	8530501	1.063140416	0.063140416
22	8530767	1.063142368	0.063142368
22	8530901	1.063143344	0.063143344
22	8531167	1.063145296	0.063145296
22	8531955	1.063151152	0.063151152
22	8532349	1.06315408	0.06315408
22	8532747	1.063157008	0.063157008
22	8534199	1.063167744	0.063167744
22	8534597	1.063170672	0.063170672
22	8534729	1.063171648	0.063171648
22	8535123	1.063174576	0.063174576
22	8536305	1.06318336	0.06318336
22	8536703	1.063186288	0.063186288
22	8538283	1.063198	0.063198
22	8539733	1.063208736	0.063208736
22	8540127	1.063211664	0.063211664
22	8540393	1.063213616	0.063213616
22	8542101	1.063226304	0.063226304
22	8542625	1.063230208	0.063230208
22	8543021	1.063233136	0.063233136
22	8543155	1.063234112	0.063234112
22	8543551	1.06323704	0.06323704
22	8544467	1.063243872	0.063243872
22	8544865	1.0632468	0.0632468
22	8546621	1.063259488	0.063259488
22	8547017	1.063262416	0.063262416
22	8548855	1.06327608	0.06327608
22	8550563	1.063288768	0.063288768
22	8551091	1.063292672	0.063292672
22	8551485	1.0632956	0.0632956
22	8551621	1.063296576	0.063296576
22	8551889	1.063298528	0.063298528
22	8552021	1.063299504	0.063299504
22	8552283	1.063301456	0.063301456
22	8553071	1.063307312	0.063307312
22	8553205	1.063308288	0.063308288
22	8553469	1.06331024	0.06331024
22	8553603	1.063311216	0.063311216
22	8553871	1.063313168	0.063313168
22	8554003	1.063314144	0.063314144
22	8554399	1.063317072	0.063317072
22	8554533	1.063318048	0.063318048
22	8554929	1.063320976	0.063320976
22	8555327	1.063323904	0.063323904
22	8555591	1.063325856	0.063325856
22	8555727	1.063326832	0.063326832
22	8555991	1.063328784	0.063328784
22	8556123	1.06332976	0.06332976
22	8556519	1.063332688	0.063332688
22	8557703	1.063341472	0.063341472
22	8557971	1.063343424	0.063343424
22	8558105	1.0633444	0.0633444
22	8558239	1.063345376	0.063345376
22	8558371	1.063346352	0.063346352
22	8558633	1.063348304	0.063348304
22	8558765	1.06334928	0.06334928
22	8559157	1.063352208	0.063352208
22	8559557	1.063355136	0.063355136
22	8559823	1.063357088	0.063357088
22	8559955	1.063358064	0.063358064
22	8560223	1.063360016	0.063360016
22	8561405	1.0633688	0.0633688
22	8561539	1.063369776	0.063369776
22	8561801	1.063371728	0.063371728
22	8562197	1.063374656	0.063374656
22	8562459	1.063376608	0.063376608
22	8562591	1.063377584	0.063377584
22	8562853	1.063379536	0.063379536
22	8563775	1.063386368	0.063386368
22	8564043	1.06338832	0.06338832
22	8564175	1.063389296	0.063389296
22	8564439	1.063391248	0.063391248
22	8564573	1.063392224	0.063392224
22	8564973	1.063395152	0.063395152
22	8565105	1.063396128	0.063396128
22	8565499	1.063399056	0.063399056
22	8565635	1.063400032	0.063400032
22	8566033	1.06340296	0.06340296
22	8566165	1.063403936	0.063403936
22	8566429	1.063405888	0.063405888
22	8566563	1.063406864	0.063406864
22	8566829	1.063408816	0.063408816
22	8568021	1.0634176	0.0634176
22	8568419	1.063420528	0.063420528
22	8568817	1.063423456	0.063423456
22	8569215	1.063426384	0.063426384
22	8569351	1.06342736	0.06342736
22	8569615	1.063429312	0.063429312
22	8569749	1.063430288	0.063430288
22	8570013	1.06343224	0.06343224
22	8570145	1.063433216	0.063433216
22	8570409	1.063435168	0.063435168
22	8570541	1.063436144	0.063436144
22	8570807	1.063438096	0.063438096
22	8572249	1.063448832	0.063448832
22	8572643	1.06345176	0.06345176
22	8573041	1.063454688	0.063454688
22	8573437	1.063457616	0.063457616
22	8574619	1.0634664	0.0634664
22	8574887	1.063468352	0.063468352
22	8575019	1.063469328	0.063469328
22	8575155	1.063470304	0.063470304
22	8575287	1.06347128	0.06347128
22	8575551	1.063473232	0.063473232
22	8576339	1.063479088	0.063479088
22	8576731	1.063482016	0.063482016
22	8577129	1.063484944	0.063484944
22	8578053	1.063491776	0.063491776
22	8580607	1.06351032	0.06351032
22	8580741	1.063511296	0.063511296
22	8581135	1.063514224	0.063514224
22	8581529	1.063517152	0.063517152
22	8581923	1.06352008	0.06352008
22	8582585	1.06352496	0.06352496
22	8582851	1.063526912	0.063526912
22	8582985	1.063527888	0.063527888
22	8583117	1.063528864	0.063528864
22	8583249	1.06352984	0.06352984
22	8583515	1.063531792	0.063531792
22	8584825	1.063541552	0.063541552
22	8586803	1.063556192	0.063556192
22	8587203	1.06355912	0.06355912
22	8588915	1.063571808	0.063571808
22	8589181	1.06357376	0.06357376
22	8589313	1.063574736	0.063574736
22	8589579	1.063576688	0.063576688
22	8591283	1.063589376	0.063589376
22	8591681	1.063592304	0.063592304
22	8592079	1.063595232	0.063595232
22	8592473	1.06359816	0.06359816
22	8593131	1.06360304	0.06360304
22	8593265	1.063604016	0.063604016
22	8593527	1.063605968	0.063605968
22	8593659	1.063606944	0.063606944
22	8594057	1.063609872	0.063609872
22	8594189	1.063610848	0.063610848
22	8594583	1.063613776	0.063613776
22	8595241	1.063618656	0.063618656
22	8595509	1.063620608	0.063620608
22	8595641	1.063621584	0.063621584
22	8595773	1.06362256	0.06362256
22	8595909	1.063623536	0.063623536
22	8596175	1.063625488	0.063625488
22	8596307	1.063626464	0.063626464
22	8596701	1.063629392	0.063629392
22	8597361	1.063634272	0.063634272
22	8597755	1.0636372	0.0636372
22	8597887	1.063638176	0.063638176
22	8598289	1.063641104	0.063641104
22	8599731	1.06365184	0.06365184
22	8600125	1.063654768	0.063654768
22	8600525	1.063657696	0.063657696
22	8600923	1.063660624	0.063660624
22	8601055	1.0636616	0.0636616
22	8601451	1.063664528	0.063664528
22	8602113	1.063669408	0.063669408
22	8602511	1.063672336	0.063672336
22	8604485	1.063686976	0.063686976
22	8604749	1.063688928	0.063688928
22	8604881	1.063689904	0.063689904
22	8605143	1.063691856	0.063691856
22	8605277	1.063692832	0.063692832
22	8605673	1.06369576	0.06369576
22	8606333	1.06370064	0.06370064
22	8606603	1.063702592	0.063702592
22	8606735	1.063703568	0.063703568
22	8607001	1.06370552	0.06370552
22	8607923	1.063712352	0.063712352
22	8608185	1.063714304	0.063714304
22	8608317	1.06371528	0.06371528
22	8608585	1.063717232	0.063717232
22	8608983	1.06372016	0.06372016
22	8609381	1.063723088	0.063723088
22	8610041	1.063727968	0.063727968
22	8610441	1.063730896	0.063730896
22	8610575	1.063731872	0.063731872
22	8610969	1.0637348	0.0637348
22	8611101	1.063735776	0.063735776
22	8611497	1.063738704	0.063738704
22	8611629	1.06373968	0.06373968
22	8612025	1.063742608	0.063742608
22	8612681	1.063747488	0.063747488
22	8613105	1.063750416	0.063750416
22	8614069	1.063757248	0.063757248
22	8615145	1.063765056	0.063765056
22	8615543	1.063767984	0.063767984
22	8615939	1.063770912	0.063770912
22	8616337	1.06377384	0.06377384
22	8616471	1.063774816	0.063774816
22	8616737	1.063776768	0.063776768
22	8616869	1.063777744	0.063777744
22	8617133	1.063779696	0.063779696
22	8622921	1.06382264	0.06382264
22	8625027	1.063838256	0.063838256
22	8626211	1.06384704	0.06384704
22	8626611	1.063849968	0.063849968
22	8627799	1.063858752	0.063858752
22	8628193	1.06386168	0.06386168
22	8629111	1.063868512	0.063868512
22	8629511	1.06387144	0.06387144
22	8633465	1.06390072	0.06390072
22	8635179	1.063913408	0.063913408
22	8635443	1.06391536	0.06391536
22	8635707	1.063917312	0.063917312
22	8635841	1.063918288	0.063918288
22	8636103	1.06392024	0.06392024
22	8636237	1.063921216	0.063921216
22	8636505	1.063923168	0.063923168
22	8636637	1.063924144	0.063924144
22	8636773	1.06392512	0.06392512
22	8636905	1.063926096	0.063926096
22	8637173	1.063928048	0.063928048
22	8637567	1.063930976	0.063930976
22	8637833	1.063932928	0.063932928
22	8637965	1.063933904	0.063933904
22	8638099	1.06393488	0.06393488
22	8638231	1.063935856	0.063935856
22	8638499	1.063937808	0.063937808
22	8638631	1.063938784	0.063938784
22	8639031	1.063941712	0.063941712
22	8639165	1.063942688	0.063942688
22	8639559	1.063945616	0.063945616
22	8639691	1.063946592	0.063946592
22	8640091	1.06394952	0.06394952
22	8640223	1.063950496	0.063950496
22	8640621	1.063953424	0.063953424
22	8643381	1.06397392	0.06397392
22	8643777	1.063976848	0.063976848
22	8643909	1.063977824	0.063977824
22	8644173	1.063979776	0.063979776
22	8644305	1.063980752	0.063980752
22	8644573	1.063982704	0.063982704
22	8646017	1.06399344	0.06399344
22	8646151	1.063994416	0.063994416
22	8646413	1.063996368	0.063996368
22	8647653	1.064005152	0.064005152
22	8648051	1.06400808	0.06400808
22	8648183	1.064009056	0.064009056
22	8648581	1.064011984	0.064011984
22	8649249	1.064016864	0.064016864
22	8649647	1.064019792	0.064019792
22	8649779	1.064020768	0.064020768
22	8650043	1.06402272	0.06402272
22	8650175	1.064023696	0.064023696
22	8650311	1.064024672	0.064024672
22	8650709	1.0640276	0.0640276
22	8650843	1.064028576	0.064028576
22	8651109	1.064030528	0.064030528
22	8651243	1.064031504	0.064031504
22	8651377	1.06403248	0.06403248
22	8651509	1.064033456	0.064033456
22	8651771	1.064035408	0.064035408
22	8651905	1.064036384	0.064036384
22	8652297	1.064039312	0.064039312
22	8652959	1.064044192	0.064044192
22	8653355	1.06404712	0.06404712
22	8653487	1.064048096	0.064048096

