version 3
run General-0-20250701-22:58:42-8748
attr configname General
attr datetime 20250701-22:58:42
attr datetimef 20250701-225842
attr experiment General
attr inifile sim1.ini
attr iterationvars ""
attr iterationvarsd ""
attr iterationvarsf ""
attr measurement ""
attr network Sim1
attr processid 8748
attr repetition 0
attr replication #0
attr resultdir results
attr runnumber 0
attr seedset 0
config network Sim1
config sim-time-limit 9000000s
config **.scalar-recording true
config **.vector-recording true
config *.LD2.n 1
config *.LD2.periodicTrafficGen[*].period 0.0014s
config *.LD2.periodicTrafficGen[*].startTime 1s
config *.LD2.periodicTrafficGen[*].name "\"LD2\""
config *.LD2.periodicTrafficGen[*].payloadSize 1300B
config *.LD2.periodicTrafficGen[*].burstSize 1
config *.LD2.periodicTrafficGen[*].destAddr "\"CU\""
config *.LD2.periodicTrafficGen[*].srcAddr "\"LD2\""
config *.LD2.periodicTrafficGen[*].deadlineRel 0.0014s
config *.LD2.ethController.ethEncap.address "\"LD2\""
config *.LD2.ethController.etherMAC.datarate 1Gbps
config *.LD2.ethController.etherMAC.vlans []
config *.SW3.portCount 6
config *.SW3.eth[*].datarate 1Gbps
config *.SW3.eth[*].vlans []
config *.US2.n 1
config *.US2.periodicTrafficGen[*].period 0.1s
config *.US2.periodicTrafficGen[*].startTime 1s
config *.US2.periodicTrafficGen[*].name "\"US2\""
config *.US2.periodicTrafficGen[*].payloadSize 188B
config *.US2.periodicTrafficGen[*].burstSize 1
config *.US2.periodicTrafficGen[*].destAddr "\"CU\""
config *.US2.periodicTrafficGen[*].srcAddr "\"US2\""
config *.US2.periodicTrafficGen[*].deadlineRel 0.1s
config *.US2.ethController.ethEncap.address "\"US2\""
config *.US2.ethController.etherMAC.datarate 1Gbps
config *.US2.ethController.etherMAC.vlans []
config *.S2.n 1
config *.S2.periodicTrafficGen[*].period 0s
config *.S2.periodicTrafficGen[*].startTime 0s
config *.S2.periodicTrafficGen[*].name "\"S2\""
config *.S2.periodicTrafficGen[*].payloadSize 0B
config *.S2.periodicTrafficGen[*].burstSize 0
config *.S2.periodicTrafficGen[*].destAddr "\"\""
config *.S2.periodicTrafficGen[*].srcAddr "\"S2\""
config *.S2.periodicTrafficGen[*].deadlineRel 0s
config *.S2.ethController.ethEncap.address "\"S2\""
config *.S2.ethController.etherMAC.datarate 1Gbps
config *.S2.ethController.etherMAC.vlans []
config *.CU.n 1
config *.CU.periodicTrafficGen[*].period 0.01s
config *.CU.periodicTrafficGen[*].startTime 1s
config *.CU.periodicTrafficGen[*].name "\"CU\""
config *.CU.periodicTrafficGen[*].payloadSize 10500B
config *.CU.periodicTrafficGen[*].burstSize 1
config *.CU.periodicTrafficGen[*].destAddr "\"HU\""
config *.CU.periodicTrafficGen[*].srcAddr "\"CU\""
config *.CU.periodicTrafficGen[*].deadlineRel 0.01s
config *.CU.ethController.ethEncap.address "\"CU\""
config *.CU.ethController.etherMAC.datarate 1Gbps
config *.CU.ethController.etherMAC.vlans []
config *.SW2.portCount 6
config *.SW2.eth[*].datarate 1Gbps
config *.SW2.eth[*].vlans []
config *.TLM.n 2
config *.TLM.periodicTrafficGen[0].period 0.000625s
config *.TLM.periodicTrafficGen[0].startTime 1s
config *.TLM.periodicTrafficGen[0].name "\"TLM\""
config *.TLM.periodicTrafficGen[0].payloadSize 600B
config *.TLM.periodicTrafficGen[0].burstSize 1
config *.TLM.periodicTrafficGen[0].destAddr "\"HU\""
config *.TLM.periodicTrafficGen[0].srcAddr "\"TLM\""
config *.TLM.periodicTrafficGen[0].deadlineRel 0.000625s
config *.TLM.periodicTrafficGen[1].period 0.000625s
config *.TLM.periodicTrafficGen[1].startTime 1s
config *.TLM.periodicTrafficGen[1].name "\"TLM\""
config *.TLM.periodicTrafficGen[1].payloadSize 600B
config *.TLM.periodicTrafficGen[1].burstSize 1
config *.TLM.periodicTrafficGen[1].destAddr "\"CU\""
config *.TLM.periodicTrafficGen[1].srcAddr "\"TLM\""
config *.TLM.periodicTrafficGen[1].deadlineRel 0.000625s
config *.TLM.ethController.ethEncap.address "\"TLM\""
config *.TLM.ethController.etherMAC.datarate 1Gbps
config *.TLM.ethController.etherMAC.vlans []
config *.HU.n 1
config *.HU.periodicTrafficGen[*].period 0s
config *.HU.periodicTrafficGen[*].startTime 0s
config *.HU.periodicTrafficGen[*].name "\"HU\""
config *.HU.periodicTrafficGen[*].payloadSize 0B
config *.HU.periodicTrafficGen[*].burstSize 0
config *.HU.periodicTrafficGen[*].destAddr "\"\""
config *.HU.periodicTrafficGen[*].srcAddr "\"HU\""
config *.HU.periodicTrafficGen[*].deadlineRel 0s
config *.HU.ethController.ethEncap.address "\"HU\""
config *.HU.ethController.etherMAC.datarate 1Gbps
config *.HU.ethController.etherMAC.vlans []
config *.RS1.n 1
config *.RS1.periodicTrafficGen[*].period 0s
config *.RS1.periodicTrafficGen[*].startTime 0s
config *.RS1.periodicTrafficGen[*].name "\"RS1\""
config *.RS1.periodicTrafficGen[*].payloadSize 0B
config *.RS1.periodicTrafficGen[*].burstSize 0
config *.RS1.periodicTrafficGen[*].destAddr "\"\""
config *.RS1.periodicTrafficGen[*].srcAddr "\"RS1\""
config *.RS1.periodicTrafficGen[*].deadlineRel 0s
config *.RS1.ethController.ethEncap.address "\"RS1\""
config *.RS1.ethController.etherMAC.datarate 1Gbps
config *.RS1.ethController.etherMAC.vlans []
config *.SW6.portCount 5
config *.SW6.eth[*].datarate 1Gbps
config *.SW6.eth[*].vlans []
config *.S4.n 1
config *.S4.periodicTrafficGen[*].period 0s
config *.S4.periodicTrafficGen[*].startTime 0s
config *.S4.periodicTrafficGen[*].name "\"S4\""
config *.S4.periodicTrafficGen[*].payloadSize 0B
config *.S4.periodicTrafficGen[*].burstSize 0
config *.S4.periodicTrafficGen[*].destAddr "\"\""
config *.S4.periodicTrafficGen[*].srcAddr "\"S4\""
config *.S4.periodicTrafficGen[*].deadlineRel 0s
config *.S4.ethController.ethEncap.address "\"S4\""
config *.S4.ethController.etherMAC.datarate 1Gbps
config *.S4.ethController.etherMAC.vlans []
config *.RC.n 1
config *.RC.periodicTrafficGen[*].period 0.03333s
config *.RC.periodicTrafficGen[*].startTime 1s
config *.RC.periodicTrafficGen[*].name "\"RC\""
config *.RC.periodicTrafficGen[*].payloadSize 178000B
config *.RC.periodicTrafficGen[*].burstSize 0
config *.RC.periodicTrafficGen[*].destAddr "\"HU\""
config *.RC.periodicTrafficGen[*].srcAddr "\"RC\""
config *.RC.periodicTrafficGen[*].deadlineRel 0.03333s
config *.RC.ethController.ethEncap.address "\"RC\""
config *.RC.ethController.etherMAC.datarate 1Gbps
config *.RC.ethController.etherMAC.vlans []
config *.US3.n 1
config *.US3.periodicTrafficGen[*].period 0.1s
config *.US3.periodicTrafficGen[*].startTime 1s
config *.US3.periodicTrafficGen[*].name "\"US3\""
config *.US3.periodicTrafficGen[*].payloadSize 188B
config *.US3.periodicTrafficGen[*].burstSize 1
config *.US3.periodicTrafficGen[*].destAddr "\"CU\""
config *.US3.periodicTrafficGen[*].srcAddr "\"US3\""
config *.US3.periodicTrafficGen[*].deadlineRel 0.1s
config *.US3.ethController.ethEncap.address "\"US3\""
config *.US3.ethController.etherMAC.datarate 1Gbps
config *.US3.ethController.etherMAC.vlans []
config *.SW4.portCount 6
config *.SW4.eth[*].datarate 1Gbps
config *.SW4.eth[*].vlans []
config *.CM1.n 1
config *.CM1.periodicTrafficGen[*].period 0.01666s
config *.CM1.periodicTrafficGen[*].startTime 1s
config *.CM1.periodicTrafficGen[*].name "\"CM1\""
config *.CM1.periodicTrafficGen[*].payloadSize 178500B
config *.CM1.periodicTrafficGen[*].burstSize 1
config *.CM1.periodicTrafficGen[*].destAddr "\"HU\""
config *.CM1.periodicTrafficGen[*].srcAddr "\"CM1\""
config *.CM1.periodicTrafficGen[*].deadlineRel 0.01666s
config *.CM1.ethController.ethEncap.address "\"CM1\""
config *.CM1.ethController.etherMAC.datarate 1Gbps
config *.CM1.ethController.etherMAC.vlans []
config *.LD1.n 1
config *.LD1.periodicTrafficGen[*].period 0.0014s
config *.LD1.periodicTrafficGen[*].startTime 1s
config *.LD1.periodicTrafficGen[*].name "\"LD1\""
config *.LD1.periodicTrafficGen[*].payloadSize 1300B
config *.LD1.periodicTrafficGen[*].burstSize 1
config *.LD1.periodicTrafficGen[*].destAddr "\"CU\""
config *.LD1.periodicTrafficGen[*].srcAddr "\"LD1\""
config *.LD1.periodicTrafficGen[*].deadlineRel 0.0014s
config *.LD1.ethController.ethEncap.address "\"LD1\""
config *.LD1.ethController.etherMAC.datarate 1Gbps
config *.LD1.ethController.etherMAC.vlans []
config *.US1.n 1
config *.US1.periodicTrafficGen[*].period 0.1s
config *.US1.periodicTrafficGen[*].startTime 1s
config *.US1.periodicTrafficGen[*].name "\"US1\""
config *.US1.periodicTrafficGen[*].payloadSize 188B
config *.US1.periodicTrafficGen[*].burstSize 1
config *.US1.periodicTrafficGen[*].destAddr "\"CU\""
config *.US1.periodicTrafficGen[*].srcAddr "\"US1\""
config *.US1.periodicTrafficGen[*].deadlineRel 0.1s
config *.US1.ethController.ethEncap.address "\"US1\""
config *.US1.ethController.etherMAC.datarate 1Gbps
config *.US1.ethController.etherMAC.vlans []
config *.S1.n 1
config *.S1.periodicTrafficGen[*].period 0s
config *.S1.periodicTrafficGen[*].startTime 0s
config *.S1.periodicTrafficGen[*].name "\"S1\""
config *.S1.periodicTrafficGen[*].payloadSize 0B
config *.S1.periodicTrafficGen[*].burstSize 0
config *.S1.periodicTrafficGen[*].destAddr "\"\""
config *.S1.periodicTrafficGen[*].srcAddr "\"S1\""
config *.S1.periodicTrafficGen[*].deadlineRel 0s
config *.S1.ethController.ethEncap.address "\"S1\""
config *.S1.ethController.etherMAC.datarate 1Gbps
config *.S1.ethController.etherMAC.vlans []
config *.SW1.portCount 5
config *.SW1.eth[*].datarate 1Gbps
config *.SW1.eth[*].vlans []
config *.ME.n 6
config *.ME.periodicTrafficGen[0].period 0.000250s
config *.ME.periodicTrafficGen[0].startTime 1s
config *.ME.periodicTrafficGen[0].name "\"ME\""
config *.ME.periodicTrafficGen[0].payloadSize 80B
config *.ME.periodicTrafficGen[0].burstSize 1
config *.ME.periodicTrafficGen[0].destAddr "\"S1\""
config *.ME.periodicTrafficGen[0].srcAddr "\"ME\""
config *.ME.periodicTrafficGen[0].deadlineRel 0.000250s
config *.ME.periodicTrafficGen[1].period 0.000250s
config *.ME.periodicTrafficGen[1].startTime 1s
config *.ME.periodicTrafficGen[1].name "\"ME\""
config *.ME.periodicTrafficGen[1].payloadSize 80B
config *.ME.periodicTrafficGen[1].burstSize 1
config *.ME.periodicTrafficGen[1].destAddr "\"S2\""
config *.ME.periodicTrafficGen[1].srcAddr "\"ME\""
config *.ME.periodicTrafficGen[1].deadlineRel 0.000250s
config *.ME.periodicTrafficGen[2].period 0.000250s
config *.ME.periodicTrafficGen[2].startTime 1s
config *.ME.periodicTrafficGen[2].name "\"ME\""
config *.ME.periodicTrafficGen[2].payloadSize 80B
config *.ME.periodicTrafficGen[2].burstSize 1
config *.ME.periodicTrafficGen[2].destAddr "\"S3\""
config *.ME.periodicTrafficGen[2].srcAddr "\"ME\""
config *.ME.periodicTrafficGen[2].deadlineRel 0.000250s
config *.ME.periodicTrafficGen[3].period 0.000250s
config *.ME.periodicTrafficGen[3].startTime 1s
config *.ME.periodicTrafficGen[3].name "\"ME\""
config *.ME.periodicTrafficGen[3].payloadSize 80B
config *.ME.periodicTrafficGen[3].burstSize 1
config *.ME.periodicTrafficGen[3].destAddr "\"S4\""
config *.ME.periodicTrafficGen[3].srcAddr "\"ME\""
config *.ME.periodicTrafficGen[3].deadlineRel 0.000250s
config *.ME.periodicTrafficGen[4].period 0.03333s
config *.ME.periodicTrafficGen[4].startTime 1s
config *.ME.periodicTrafficGen[4].name "\"ME\""
config *.ME.periodicTrafficGen[4].payloadSize 178500B
config *.ME.periodicTrafficGen[4].burstSize 1
config *.ME.periodicTrafficGen[4].destAddr "\"RS1\""
config *.ME.periodicTrafficGen[4].srcAddr "\"ME\""
config *.ME.periodicTrafficGen[4].deadlineRel 0.03333s
config *.ME.periodicTrafficGen[5].period 0.03333s
config *.ME.periodicTrafficGen[5].startTime 1s
config *.ME.periodicTrafficGen[5].name "\"ME\""
config *.ME.periodicTrafficGen[5].payloadSize 178500B
config *.ME.periodicTrafficGen[5].burstSize 1
config *.ME.periodicTrafficGen[5].destAddr "\"RS2\""
config *.ME.periodicTrafficGen[5].srcAddr "\"ME\""
config *.ME.periodicTrafficGen[5].deadlineRel 0.03333s
config *.ME.ethController.ethEncap.address "\"ME\""
config *.ME.ethController.etherMAC.datarate 1Gbps
config *.ME.ethController.etherMAC.vlans []
config *.RS2.n 1
config *.RS2.periodicTrafficGen[*].period 0s
config *.RS2.periodicTrafficGen[*].startTime 0s
config *.RS2.periodicTrafficGen[*].name "\"RS2\""
config *.RS2.periodicTrafficGen[*].payloadSize 0B
config *.RS2.periodicTrafficGen[*].burstSize 0
config *.RS2.periodicTrafficGen[*].destAddr "\"\""
config *.RS2.periodicTrafficGen[*].srcAddr "\"RS2\""
config *.RS2.periodicTrafficGen[*].deadlineRel 0s
config *.RS2.ethController.ethEncap.address "\"RS2\""
config *.RS2.ethController.etherMAC.datarate 1Gbps
config *.RS2.ethController.etherMAC.vlans []
config *.SW5.portCount 4
config *.SW5.eth[*].datarate 1Gbps
config *.SW5.eth[*].vlans []
config *.S3.n 1
config *.S3.periodicTrafficGen[*].period 0s
config *.S3.periodicTrafficGen[*].startTime 0s
config *.S3.periodicTrafficGen[*].name "\"S3\""
config *.S3.periodicTrafficGen[*].payloadSize 0B
config *.S3.periodicTrafficGen[*].burstSize 0
config *.S3.periodicTrafficGen[*].destAddr "\"\""
config *.S3.periodicTrafficGen[*].srcAddr "\"S3\""
config *.S3.periodicTrafficGen[*].deadlineRel 0s
config *.S3.ethController.ethEncap.address "\"S3\""
config *.S3.ethController.etherMAC.datarate 1Gbps
config *.S3.ethController.etherMAC.vlans []
config *.US4.n 1
config *.US4.periodicTrafficGen[*].period 0.1s
config *.US4.periodicTrafficGen[*].startTime 1s
config *.US4.periodicTrafficGen[*].name "\"US4\""
config *.US4.periodicTrafficGen[*].payloadSize 188B
config *.US4.periodicTrafficGen[*].burstSize 1
config *.US4.periodicTrafficGen[*].destAddr "\"CU\""
config *.US4.periodicTrafficGen[*].srcAddr "\"US4\""
config *.US4.periodicTrafficGen[*].deadlineRel 0.1s
config *.US4.ethController.ethEncap.address "\"US4\""
config *.US4.ethController.etherMAC.datarate 1Gbps
config *.US4.ethController.etherMAC.vlans []

vector 0 Sim1.LD2.periodicTrafficGen[0] E2EDelay:vector ETV
attr recordingmode vector
attr source E2EDelay
vector 1 Sim1.US2.periodicTrafficGen[0] E2EDelay:vector ETV
attr recordingmode vector
attr source E2EDelay
vector 2 Sim1.S2.periodicTrafficGen[0] E2EDelay:vector ETV
attr recordingmode vector
attr source E2EDelay
vector 3 Sim1.CU.periodicTrafficGen[0] E2EDelay:vector ETV
attr recordingmode vector
attr source E2EDelay
vector 4 Sim1.TLM.periodicTrafficGen[0] E2EDelay:vector ETV
attr recordingmode vector
attr source E2EDelay
vector 5 Sim1.TLM.periodicTrafficGen[1] E2EDelay:vector ETV
attr recordingmode vector
attr source E2EDelay
vector 6 Sim1.HU.periodicTrafficGen[0] E2EDelay:vector ETV
attr recordingmode vector
attr source E2EDelay
vector 7 Sim1.RS1.periodicTrafficGen[0] E2EDelay:vector ETV
attr recordingmode vector
attr source E2EDelay
vector 8 Sim1.S4.periodicTrafficGen[0] E2EDelay:vector ETV
attr recordingmode vector
attr source E2EDelay
vector 9 Sim1.RC.periodicTrafficGen[0] E2EDelay:vector ETV
attr recordingmode vector
attr source E2EDelay
vector 10 Sim1.US3.periodicTrafficGen[0] E2EDelay:vector ETV
attr recordingmode vector
attr source E2EDelay
vector 11 Sim1.CM1.periodicTrafficGen[0] E2EDelay:vector ETV
attr recordingmode vector
attr source E2EDelay
vector 12 Sim1.LD1.periodicTrafficGen[0] E2EDelay:vector ETV
attr recordingmode vector
attr source E2EDelay
vector 13 Sim1.US1.periodicTrafficGen[0] E2EDelay:vector ETV
attr recordingmode vector
attr source E2EDelay
vector 14 Sim1.S1.periodicTrafficGen[0] E2EDelay:vector ETV
attr recordingmode vector
attr source E2EDelay
vector 15 Sim1.ME.periodicTrafficGen[0] E2EDelay:vector ETV
attr recordingmode vector
attr source E2EDelay
vector 16 Sim1.ME.periodicTrafficGen[1] E2EDelay:vector ETV
attr recordingmode vector
attr source E2EDelay
vector 17 Sim1.ME.periodicTrafficGen[2] E2EDelay:vector ETV
attr recordingmode vector
attr source E2EDelay
vector 18 Sim1.ME.periodicTrafficGen[3] E2EDelay:vector ETV
attr recordingmode vector
attr source E2EDelay
vector 19 Sim1.ME.periodicTrafficGen[4] E2EDelay:vector ETV
attr recordingmode vector
attr source E2EDelay
vector 20 Sim1.ME.periodicTrafficGen[5] E2EDelay:vector ETV
attr recordingmode vector
attr source E2EDelay
vector 21 Sim1.RS2.periodicTrafficGen[0] E2EDelay:vector ETV
attr recordingmode vector
attr source E2EDelay
vector 22 Sim1.S3.periodicTrafficGen[0] E2EDelay:vector ETV
attr recordingmode vector
attr source E2EDelay
vector 23 Sim1.US4.periodicTrafficGen[0] E2EDelay:vector ETV
attr recordingmode vector
attr source E2EDelay
vector 24 Sim1.LD2.ethController.etherMAC txqueue_LD2 ETV
vector 25 Sim1.SW3.eth[0] txqueue_SW3_0 ETV
vector 26 Sim1.SW3.eth[1] txqueue_SW3_1 ETV
vector 27 Sim1.SW3.eth[2] txqueue_SW3_2 ETV
vector 28 Sim1.SW3.eth[3] txqueue_SW3_3 ETV
vector 29 Sim1.SW3.eth[4] txqueue_SW3_4 ETV
vector 30 Sim1.SW3.eth[5] txqueue_SW3_5 ETV
vector 31 Sim1.US2.ethController.etherMAC txqueue_US2 ETV
vector 32 Sim1.S2.ethController.etherMAC txqueue_S2 ETV
vector 33 Sim1.CU.ethController.etherMAC txqueue_CU ETV
vector 34 Sim1.SW2.eth[0] txqueue_SW2_0 ETV
vector 35 Sim1.SW2.eth[1] txqueue_SW2_1 ETV
vector 36 Sim1.SW2.eth[2] txqueue_SW2_2 ETV
vector 37 Sim1.SW2.eth[3] txqueue_SW2_3 ETV
vector 38 Sim1.SW2.eth[4] txqueue_SW2_4 ETV
vector 39 Sim1.SW2.eth[5] txqueue_SW2_5 ETV
vector 40 Sim1.TLM.ethController.etherMAC txqueue_TLM ETV
vector 41 Sim1.HU.ethController.etherMAC txqueue_HU ETV
vector 42 Sim1.RS1.ethController.etherMAC txqueue_RS1 ETV
vector 43 Sim1.SW6.eth[0] txqueue_SW6_0 ETV
vector 44 Sim1.SW6.eth[1] txqueue_SW6_1 ETV
vector 45 Sim1.SW6.eth[2] txqueue_SW6_2 ETV
vector 46 Sim1.SW6.eth[3] txqueue_SW6_3 ETV
vector 47 Sim1.SW6.eth[4] txqueue_SW6_4 ETV
vector 48 Sim1.S4.ethController.etherMAC txqueue_S4 ETV
vector 49 Sim1.RC.ethController.etherMAC txqueue_RC ETV
vector 50 Sim1.US3.ethController.etherMAC txqueue_US3 ETV
vector 51 Sim1.SW4.eth[0] txqueue_SW4_0 ETV
vector 52 Sim1.SW4.eth[1] txqueue_SW4_1 ETV
vector 53 Sim1.SW4.eth[2] txqueue_SW4_2 ETV
vector 54 Sim1.SW4.eth[3] txqueue_SW4_3 ETV
vector 55 Sim1.SW4.eth[4] txqueue_SW4_4 ETV
vector 56 Sim1.SW4.eth[5] txqueue_SW4_5 ETV
vector 57 Sim1.CM1.ethController.etherMAC txqueue_CM1 ETV
vector 58 Sim1.LD1.ethController.etherMAC txqueue_LD1 ETV
vector 59 Sim1.US1.ethController.etherMAC txqueue_US1 ETV
vector 60 Sim1.S1.ethController.etherMAC txqueue_S1 ETV
vector 61 Sim1.SW1.eth[0] txqueue_SW1_0 ETV
vector 62 Sim1.SW1.eth[1] txqueue_SW1_1 ETV
vector 63 Sim1.SW1.eth[2] txqueue_SW1_2 ETV
vector 64 Sim1.SW1.eth[3] txqueue_SW1_3 ETV
vector 65 Sim1.SW1.eth[4] txqueue_SW1_4 ETV
vector 66 Sim1.ME.ethController.etherMAC txqueue_ME ETV
vector 67 Sim1.RS2.ethController.etherMAC txqueue_RS2 ETV
vector 68 Sim1.SW5.eth[0] txqueue_SW5_0 ETV
vector 69 Sim1.SW5.eth[1] txqueue_SW5_1 ETV
vector 70 Sim1.SW5.eth[2] txqueue_SW5_2 ETV
vector 71 Sim1.SW5.eth[3] txqueue_SW5_3 ETV
vector 72 Sim1.S3.ethController.etherMAC txqueue_S3 ETV
vector 73 Sim1.US4.ethController.etherMAC txqueue_US4 ETV
2	941	1.000006256	6.256e-06
2	1147	1.0000072	7.2e-06
2	2439	1.000012864	1.2864e-05
2	3996	1.000019472	1.9472e-05
2	4221	1.000020416	2.0416e-05
2	4667	1.000022304	2.2304e-05
2	5780	1.000027024	2.7024e-05
2	6224	1.000028912	2.8912e-05
2	7118	1.000032688	3.2688e-05
2	8679	1.000039296	3.9296e-05
2	9348	1.000042128	4.2128e-05
2	10238	1.000045904	4.5904e-05
2	10909	1.000048736	4.8736e-05
2	11805	1.000052512	5.2512e-05
2	12251	1.0000544	5.44e-05
2	13141	1.000058176	5.8176e-05
2	14925	1.000065728	6.5728e-05
2	16928	1.000074224	7.4224e-05
2	17820	1.000078	7.8e-05
2	18045	1.000078944	7.8944e-05
2	18268	1.000079888	7.9888e-05
2	18937	1.00008272	8.272e-05
2	19396	1.000084608	8.4608e-05
2	19842	1.000086496	8.6496e-05
2	20732	1.000090272	9.0272e-05
2	21180	1.00009216	9.216e-05
3	383	1.000003424	3.424e-06
8	1998	1.000010976	1.0976e-05
8	2214	1.00001192	1.192e-05
8	5111	1.000024192	2.4192e-05
8	5334	1.000025136	2.5136e-05
8	9125	1.000041184	4.1184e-05
8	9792	1.000044016	4.4016e-05
8	10015	1.00004496	4.496e-05
8	10686	1.000047792	4.7792e-05
8	11134	1.00004968	4.968e-05
8	11359	1.000050624	5.0624e-05
8	19162	1.000083664	8.3664e-05
8	20286	1.000088384	8.8384e-05
8	20957	1.000091216	9.1216e-05
8	21624	1.000094048	9.4048e-05
8	22068	1.000095936	9.5936e-05
8	22291	1.00009688	9.688e-05
8	22514	1.000097824	9.7824e-05
14	246	1.000002544	2.544e-06
14	1130	1.000007184	7.184e-06
14	1736	1.000010016	1.0016e-05
14	2193	1.000011904	1.1904e-05
14	2418	1.000012848	1.2848e-05
14	2643	1.000013792	1.3792e-05
14	3752	1.000018512	1.8512e-05
14	3975	1.000019456	1.9456e-05
14	4646	1.000022288	2.2288e-05
14	5759	1.000027008	2.7008e-05
14	6874	1.000031728	3.1728e-05
14	7545	1.00003456	3.456e-05
14	7768	1.000035504	3.5504e-05
14	8214	1.000037392	3.7392e-05
14	8658	1.00003928	3.928e-05
14	9104	1.000041168	4.1168e-05
14	10665	1.000047776	4.7776e-05
14	11338	1.000050608	5.0608e-05
14	11563	1.000051552	5.1552e-05
14	12009	1.00005344	5.344e-05
14	12455	1.000055328	5.5328e-05
14	13345	1.000059104	5.9104e-05
14	13568	1.000060048	6.0048e-05
14	13791	1.000060992	6.0992e-05
14	14235	1.00006288	6.288e-05
14	14458	1.000063824	6.3824e-05
14	14681	1.000064768	6.4768e-05
14	14904	1.000065712	6.5712e-05
14	15129	1.000066656	6.6656e-05
14	15575	1.000068544	6.8544e-05
14	16463	1.00007232	7.232e-05
14	17132	1.000075152	7.5152e-05
14	18024	1.000078928	7.8928e-05
14	18472	1.000080816	8.0816e-05
14	19600	1.000085536	8.5536e-05
14	20490	1.000089312	8.9312e-05
14	20936	1.0000912	9.12e-05
22	924	1.00000624	6.24e-06
22	1977	1.00001096	1.096e-05
22	3529	1.000017568	1.7568e-05
22	4200	1.0000204	2.04e-05
22	6428	1.00002984	2.984e-05
22	6651	1.000030784	3.0784e-05
22	7097	1.000032672	3.2672e-05
22	7322	1.000033616	3.3616e-05
22	7991	1.000036448	3.6448e-05
22	10442	1.000046832	4.6832e-05
22	11113	1.000049664	4.9664e-05
22	12899	1.000057216	5.7216e-05
22	15352	1.0000676	6.76e-05
22	16240	1.000071376	7.1376e-05
22	16686	1.000073264	7.3264e-05
22	17576	1.00007704	7.704e-05
22	17799	1.000077984	7.7984e-05
22	18695	1.00008176	8.176e-05
22	19141	1.000083648	8.3648e-05
22	19375	1.000084592	8.4592e-05
24	0	0	0
24	50	1	1
24	50	1	0
25	0	0	0
25	139	1.000001712	1
25	139	1.000001712	0
25	228	1.000002544	1
25	237	1.000002544	2
25	411	1.000003488	3
25	420	1.00000352	2
25	522	1.000004352	3
25	592	1.000004464	2
25	693	1.000005296	3
25	702	1.000005296	4
25	799	1.000005408	3
25	905	1.00000624	4
25	914	1.00000624	5
25	1005	1.000006352	4
25	1120	1.000007184	5
25	1211	1.000007296	4
25	1240	1.000008048	5
25	1318	1.000008128	6
25	1405	1.00000824	5
25	1448	1.000008992	6
25	1514	1.000009072	7
25	1597	1.000009184	6
25	1656	1.000009936	7
25	1726	1.000010016	8
25	1819	1.000010128	7
25	1897	1.00001088	8
25	1967	1.00001096	9
25	2054	1.000011072	8
25	2113	1.000011824	9
25	2183	1.000011904	10
25	2270	1.000012016	9
25	2338	1.000012768	10
25	2408	1.000012848	11
25	2495	1.00001296	10
25	2563	1.000013712	11
25	2633	1.000013792	12
25	2718	1.000013904	11
25	2786	1.000014656	12
25	2856	1.000014736	13
25	2939	1.000014848	12
25	3007	1.0000156	13
25	3077	1.00001568	14
25	3160	1.000015792	13
25	3228	1.000016544	14
25	3298	1.000016624	15
25	3381	1.000016736	14
25	3449	1.000017488	15
25	3519	1.000017568	16
25	3604	1.00001768	15
25	3672	1.000018432	16
25	3742	1.000018512	17
25	3827	1.000018624	16
25	3895	1.000019376	17
25	3965	1.000019456	18
25	4052	1.000019568	17
25	4120	1.00002032	18
25	4190	1.0000204	19
25	4277	1.000020512	18
25	4345	1.000021264	19
25	4415	1.000021344	20
25	4498	1.000021456	19
25	4566	1.000022208	20
25	4636	1.000022288	21
25	4723	1.0000224	20
25	4791	1.000023152	21
25	4861	1.000023232	22
25	4944	1.000023344	21
25	5012	1.000024096	22
25	5082	1.000024176	23
25	5167	1.000024288	22
25	5235	1.00002504	23
25	5305	1.00002512	24
25	5390	1.000025232	23
25	5458	1.000025984	24
25	5528	1.000026064	25
25	5611	1.000026176	24
25	5679	1.000026928	25
25	5749	1.000027008	26
25	5836	1.00002712	25
25	5904	1.000027872	26
25	5974	1.000027952	27
25	6057	1.000028064	26
25	6125	1.000028816	27
25	6195	1.000028896	28
25	6280	1.000029008	27
25	6348	1.00002976	28
25	6418	1.00002984	29
25	6503	1.000029952	28
25	6571	1.000030704	29
25	6641	1.000030784	30
25	6726	1.000030896	29
25	6794	1.000031648	30
25	6864	1.000031728	31
25	6949	1.00003184	30
25	7017	1.000032592	31
25	7087	1.000032672	32
25	7174	1.000032784	31
25	7242	1.000033536	32
25	7312	1.000033616	33
25	7397	1.000033728	32
25	7465	1.00003448	33
25	7535	1.00003456	34
25	7620	1.000034672	33
25	7688	1.000035424	34
25	7758	1.000035504	35
25	7843	1.000035616	34
25	7911	1.000036368	35
25	7981	1.000036448	36
25	8066	1.00003656	35
25	8134	1.000037312	36
25	8204	1.000037392	37
25	8289	1.000037504	36
25	8357	1.000038256	37
25	8427	1.000038336	38
25	8510	1.000038448	37
25	8578	1.0000392	38
25	8648	1.00003928	39
25	8735	1.000039392	38
25	8803	1.000040144	39
25	8873	1.000040224	40
25	8956	1.000040336	39
25	9024	1.000041088	40
25	9094	1.000041168	41
25	9181	1.00004128	40
25	9249	1.000042032	41
25	9319	1.000042112	42
25	9404	1.000042224	41
25	9472	1.000042976	42
25	9542	1.000043056	43
25	9625	1.000043168	42
25	9693	1.00004392	43
25	9763	1.000044	44
25	9848	1.000044112	43
25	9916	1.000044864	44
25	9986	1.000044944	45
25	10071	1.000045056	44
25	10139	1.000045808	45
25	10209	1.000045888	46
25	10294	1.000046	45
25	10362	1.000046752	46
25	10432	1.000046832	47
25	10517	1.000046944	46
25	10585	1.000047696	47
25	10655	1.000047776	48
25	10742	1.000047888	47
25	10810	1.00004864	48
25	10880	1.00004872	49
25	10965	1.000048832	48
25	11033	1.000049584	49
25	11103	1.000049664	50
25	11190	1.000049776	49
25	11258	1.000050528	50
25	11328	1.000050608	51
25	11415	1.00005072	50
25	11483	1.000051472	51
25	11553	1.000051552	52
25	11638	1.000051664	51
25	11706	1.000052416	52
25	11776	1.000052496	53
25	11861	1.000052608	52
25	11929	1.00005336	53
25	11999	1.00005344	54
25	12084	1.000053552	53
25	12152	1.000054304	54
25	12222	1.000054384	55
25	12307	1.000054496	54
25	12375	1.000055248	55
25	12445	1.000055328	56
25	12530	1.00005544	55
25	12598	1.000056192	56
25	12668	1.000056272	57
25	12751	1.000056384	56
25	12819	1.000057136	57
25	12889	1.000057216	58
25	12974	1.000057328	57
25	13042	1.00005808	58
25	13112	1.00005816	59
25	13197	1.000058272	58
25	13265	1.000059024	59
25	13335	1.000059104	60
25	13420	1.000059216	59
25	13488	1.000059968	60
25	13558	1.000060048	61
25	13643	1.00006016	60
25	13711	1.000060912	61
25	13781	1.000060992	62
25	13866	1.000061104	61
25	13934	1.000061856	62
25	14004	1.000061936	63
25	14087	1.000062048	62
25	14155	1.0000628	63
25	14225	1.00006288	64
25	14310	1.000062992	63
25	14378	1.000063744	64
25	14448	1.000063824	65
25	14533	1.000063936	64
25	14601	1.000064688	65
25	14671	1.000064768	66
25	14756	1.00006488	65
25	14824	1.000065632	66
25	14894	1.000065712	67
25	14981	1.000065824	66
25	15049	1.000066576	67
25	15119	1.000066656	68
25	15204	1.000066768	67
25	15272	1.00006752	68
25	15342	1.0000676	69
25	15427	1.000067712	68
25	15495	1.000068464	69
25	15565	1.000068544	70
25	15650	1.000068656	69
25	15718	1.000069408	70
25	15788	1.000069488	71
25	15871	1.0000696	70
25	15939	1.000070352	71
25	16009	1.000070432	72
25	16092	1.000070544	71
25	16160	1.000071296	72
25	16230	1.000071376	73
25	16315	1.000071488	72
25	16383	1.00007224	73
25	16453	1.00007232	74
25	16538	1.000072432	73
25	16606	1.000073184	74
25	16676	1.000073264	75
25	16761	1.000073376	74
25	16829	1.000074128	75
25	16899	1.000074208	76
25	16984	1.00007432	75
25	17052	1.000075072	76
25	17122	1.000075152	77
25	17207	1.000075264	76
25	17275	1.000076016	77
25	17345	1.000076096	78
25	17428	1.000076208	77
25	17496	1.00007696	78
25	17566	1.00007704	79
25	17651	1.000077152	78
25	17719	1.000077904	79
25	17789	1.000077984	80
25	17876	1.000078096	79
25	17944	1.000078848	80
25	18014	1.000078928	81
25	18101	1.00007904	80
25	18169	1.000079792	81
25	18239	1.000079872	82
25	18324	1.000079984	81
25	18392	1.000080736	82
25	18462	1.000080816	83
25	18547	1.000080928	82
25	18615	1.00008168	83
25	18685	1.00008176	84
25	18770	1.000081872	83
25	18838	1.000082624	84
25	18908	1.000082704	85
25	18993	1.000082816	84
25	19061	1.000083568	85
25	19131	1.000083648	86
25	19218	1.00008376	85
25	19248	1.000084208	86
25	19295	1.000084512	87
25	19365	1.000084592	88
25	19452	1.000084704	87
25	19520	1.000085456	88
25	19590	1.000085536	89
25	19675	1.000085648	88
25	19743	1.0000864	89
25	19813	1.00008648	90
25	19898	1.000086592	89
25	19966	1.000087344	90
25	20036	1.000087424	91
25	20119	1.000087536	90
25	20187	1.000088288	91
25	20257	1.000088368	92
25	20342	1.00008848	91
25	20410	1.000089232	92
25	20480	1.000089312	93
25	20565	1.000089424	92
25	20633	1.000090176	93
25	20703	1.000090256	94
25	20788	1.000090368	93
25	20856	1.00009112	94
25	20926	1.0000912	95
25	21013	1.000091312	94
25	21081	1.000092064	95
25	21151	1.000092144	96
25	21236	1.000092256	95
25	21304	1.000093008	96
25	21374	1.000093088	97
25	21457	1.0000932	96
25	21525	1.000093952	97
25	21595	1.000094032	98
25	21680	1.000094144	97
25	21748	1.000094896	98
25	21818	1.000094976	99
25	21901	1.000095088	98
25	21969	1.00009584	99
25	22039	1.00009592	100
25	22124	1.000096032	99
25	22192	1.000096784	100
25	22262	1.000096864	101
25	22347	1.000096976	100
25	22415	1.000097728	101
25	22485	1.000097808	102
25	22570	1.00009792	101
26	0	0	0
26	229	1.000002544	1
26	229	1.000002544	0
26	238	1.000002544	1
26	400	1.000003488	0
26	412	1.000003488	1
26	523	1.000004352	2
26	576	1.000004432	1
26	694	1.000005296	2
26	703	1.000005296	3
26	744	1.000005376	2
26	906	1.00000624	3
26	915	1.00000624	4
26	950	1.00000632	3
26	1121	1.000007184	4
26	1160	1.000007264	3
26	1241	1.000008048	4
26	1319	1.000008128	5
26	1354	1.000008208	4
26	1449	1.000008992	5
26	1515	1.000009072	6
26	1546	1.000009152	5
26	1657	1.000009936	6
26	1727	1.000010016	7
26	1760	1.000010096	6
26	1844	1.000010608	7
26	1898	1.00001088	8
26	1968	1.00001096	9
26	2003	1.00001104	8
26	2114	1.000011824	9
26	2184	1.000011904	10
26	2219	1.000011984	9
26	2339	1.000012768	10
26	2409	1.000012848	11
26	2444	1.000012928	10
26	2564	1.000013712	11
26	2634	1.000013792	12
26	2667	1.000013872	11
26	2787	1.000014656	12
26	2857	1.000014736	13
26	2888	1.000014816	12
26	3008	1.0000156	13
26	3078	1.00001568	14
26	3109	1.00001576	13
26	3229	1.000016544	14
26	3299	1.000016624	15
26	3330	1.000016704	14
26	3450	1.000017488	15
26	3520	1.000017568	16
26	3553	1.000017648	15
26	3673	1.000018432	16
26	3743	1.000018512	17
26	3776	1.000018592	16
26	3896	1.000019376	17
26	3966	1.000019456	18
26	4001	1.000019536	17
26	4121	1.00002032	18
26	4191	1.0000204	19
26	4226	1.00002048	18
26	4346	1.000021264	19
26	4416	1.000021344	20
26	4447	1.000021424	19
26	4567	1.000022208	20
26	4637	1.000022288	21
26	4672	1.000022368	20
26	4792	1.000023152	21
26	4862	1.000023232	22
26	4893	1.000023312	21
26	5013	1.000024096	22
26	5083	1.000024176	23
26	5116	1.000024256	22
26	5236	1.00002504	23
26	5306	1.00002512	24
26	5339	1.0000252	23
26	5459	1.000025984	24
26	5529	1.000026064	25
26	5560	1.000026144	24
26	5680	1.000026928	25
26	5750	1.000027008	26
26	5785	1.000027088	25
26	5905	1.000027872	26
26	5975	1.000027952	27
26	6006	1.000028032	26
26	6126	1.000028816	27
26	6196	1.000028896	28
26	6229	1.000028976	27
26	6349	1.00002976	28
26	6419	1.00002984	29
26	6452	1.00002992	28
26	6572	1.000030704	29
26	6642	1.000030784	30
26	6675	1.000030864	29
26	6795	1.000031648	30
26	6865	1.000031728	31
26	6898	1.000031808	30
26	7018	1.000032592	31
26	7088	1.000032672	32
26	7123	1.000032752	31
26	7243	1.000033536	32
26	7313	1.000033616	33
26	7346	1.000033696	32
26	7466	1.00003448	33
26	7536	1.00003456	34
26	7569	1.00003464	33
26	7689	1.000035424	34
26	7759	1.000035504	35
26	7792	1.000035584	34
26	7912	1.000036368	35
26	7982	1.000036448	36
26	8015	1.000036528	35
26	8135	1.000037312	36
26	8205	1.000037392	37
26	8238	1.000037472	36
26	8358	1.000038256	37
26	8428	1.000038336	38
26	8459	1.000038416	37
26	8579	1.0000392	38
26	8649	1.00003928	39
26	8684	1.00003936	38
26	8804	1.000040144	39
26	8874	1.000040224	40
26	8905	1.000040304	39
26	9025	1.000041088	40
26	9095	1.000041168	41
26	9130	1.000041248	40
26	9250	1.000042032	41
26	9320	1.000042112	42
26	9353	1.000042192	41
26	9473	1.000042976	42
26	9543	1.000043056	43
26	9574	1.000043136	42
26	9694	1.00004392	43
26	9764	1.000044	44
26	9797	1.00004408	43
26	9917	1.000044864	44
26	9987	1.000044944	45
26	10020	1.000045024	44
26	10140	1.000045808	45
26	10210	1.000045888	46
26	10243	1.000045968	45
26	10363	1.000046752	46
26	10433	1.000046832	47
26	10466	1.000046912	46
26	10586	1.000047696	47
26	10656	1.000047776	48
26	10691	1.000047856	47
26	10811	1.00004864	48
26	10881	1.00004872	49
26	10914	1.0000488	48
26	11034	1.000049584	49
26	11104	1.000049664	50
26	11139	1.000049744	49
26	11259	1.000050528	50
26	11329	1.000050608	51
26	11364	1.000050688	50
26	11484	1.000051472	51
26	11554	1.000051552	52
26	11587	1.000051632	51
26	11707	1.000052416	52
26	11777	1.000052496	53
26	11810	1.000052576	52
26	11930	1.00005336	53
26	12000	1.00005344	54
26	12033	1.00005352	53
26	12153	1.000054304	54
26	12223	1.000054384	55
26	12256	1.000054464	54
26	12376	1.000055248	55
26	12446	1.000055328	56
26	12479	1.000055408	55
26	12599	1.000056192	56
26	12669	1.000056272	57
26	12700	1.000056352	56
26	12820	1.000057136	57
26	12890	1.000057216	58
26	12923	1.000057296	57
26	13043	1.00005808	58
26	13113	1.00005816	59
26	13146	1.00005824	58
26	13266	1.000059024	59
26	13336	1.000059104	60
26	13369	1.000059184	59
26	13489	1.000059968	60
26	13559	1.000060048	61
26	13592	1.000060128	60
26	13712	1.000060912	61
26	13782	1.000060992	62
26	13815	1.000061072	61
26	13935	1.000061856	62
26	14005	1.000061936	63
26	14036	1.000062016	62
26	14156	1.0000628	63
26	14226	1.00006288	64
26	14259	1.00006296	63
26	14379	1.000063744	64
26	14449	1.000063824	65
26	14482	1.000063904	64
26	14602	1.000064688	65
26	14672	1.000064768	66
26	14705	1.000064848	65
26	14825	1.000065632	66
26	14895	1.000065712	67
26	14930	1.000065792	66
26	15050	1.000066576	67
26	15120	1.000066656	68
26	15153	1.000066736	67
26	15273	1.00006752	68
26	15343	1.0000676	69
26	15376	1.00006768	68
26	15496	1.000068464	69
26	15566	1.000068544	70
26	15599	1.000068624	69
26	15719	1.000069408	70
26	15789	1.000069488	71
26	15820	1.000069568	70
26	15940	1.000070352	71
26	16010	1.000070432	72
26	16041	1.000070512	71
26	16161	1.000071296	72
26	16231	1.000071376	73
26	16264	1.000071456	72
26	16384	1.00007224	73
26	16454	1.00007232	74
26	16487	1.0000724	73
26	16607	1.000073184	74
26	16677	1.000073264	75
26	16710	1.000073344	74
26	16830	1.000074128	75
26	16900	1.000074208	76
26	16933	1.000074288	75
26	17053	1.000075072	76
26	17123	1.000075152	77
26	17156	1.000075232	76
26	17276	1.000076016	77
26	17346	1.000076096	78
26	17377	1.000076176	77
26	17497	1.00007696	78
26	17567	1.00007704	79
26	17600	1.00007712	78
26	17720	1.000077904	79
26	17790	1.000077984	80
26	17825	1.000078064	79
26	17945	1.000078848	80
26	18015	1.000078928	81
26	18050	1.000079008	80
26	18170	1.000079792	81
26	18240	1.000079872	82
26	18273	1.000079952	81
26	18393	1.000080736	82
26	18463	1.000080816	83
26	18496	1.000080896	82
26	18616	1.00008168	83
26	18686	1.00008176	84
26	18719	1.00008184	83
26	18839	1.000082624	84
26	18909	1.000082704	85
26	18942	1.000082784	84
26	19062	1.000083568	85
26	19132	1.000083648	86
26	19167	1.000083728	85
26	19249	1.000084208	86
26	19296	1.000084512	87
26	19366	1.000084592	88
26	19401	1.000084672	87
26	19521	1.000085456	88
26	19591	1.000085536	89
26	19624	1.000085616	88
26	19744	1.0000864	89
26	19814	1.00008648	90
26	19847	1.00008656	89
26	19967	1.000087344	90
26	20037	1.000087424	91
26	20068	1.000087504	90
26	20188	1.000088288	91
26	20258	1.000088368	92
26	20291	1.000088448	91
26	20411	1.000089232	92
26	20481	1.000089312	93
26	20514	1.000089392	92
26	20634	1.000090176	93
26	20704	1.000090256	94
26	20737	1.000090336	93
26	20857	1.00009112	94
26	20927	1.0000912	95
26	20962	1.00009128	94
26	21082	1.000092064	95
26	21152	1.000092144	96
26	21185	1.000092224	95
26	21305	1.000093008	96
26	21375	1.000093088	97
26	21406	1.000093168	96
26	21526	1.000093952	97
26	21596	1.000094032	98
26	21629	1.000094112	97
26	21749	1.000094896	98
26	21819	1.000094976	99
26	21850	1.000095056	98
26	21970	1.00009584	99
26	22040	1.00009592	100
26	22073	1.000096	99
26	22193	1.000096784	100
26	22263	1.000096864	101
26	22296	1.000096944	100
26	22416	1.000097728	101
26	22486	1.000097808	102
26	22519	1.000097888	101
27	0	0	0
27	140	1.000001712	1
27	140	1.000001712	0
27	230	1.000002544	1
27	239	1.000002544	2
27	413	1.000003488	3
27	421	1.00000352	2
27	524	1.000004352	3
27	593	1.000004464	2
27	695	1.000005296	3
27	704	1.000005296	4
27	800	1.000005408	3
27	907	1.00000624	4
27	916	1.00000624	5
27	1006	1.000006352	4
27	1122	1.000007184	5
27	1212	1.000007296	4
27	1242	1.000008048	5
27	1320	1.000008128	6
27	1406	1.00000824	5
27	1450	1.000008992	6
27	1516	1.000009072	7
27	1598	1.000009184	6
27	1658	1.000009936	7
27	1728	1.000010016	8
27	1820	1.000010128	7
27	1845	1.000010608	8
27	1899	1.00001088	9
27	1969	1.00001096	10
27	2055	1.000011072	9
27	2115	1.000011824	10
27	2185	1.000011904	11
27	2271	1.000012016	10
27	2340	1.000012768	11
27	2410	1.000012848	12
27	2496	1.00001296	11
27	2565	1.000013712	12
27	2635	1.000013792	13
27	2719	1.000013904	12
27	2788	1.000014656	13
27	2858	1.000014736	14
27	2940	1.000014848	13
27	3009	1.0000156	14
27	3079	1.00001568	15
27	3161	1.000015792	14
27	3230	1.000016544	15
27	3300	1.000016624	16
27	3382	1.000016736	15
27	3451	1.000017488	16
27	3521	1.000017568	17
27	3605	1.00001768	16
27	3674	1.000018432	17
27	3744	1.000018512	18
27	3828	1.000018624	17
27	3897	1.000019376	18
27	3967	1.000019456	19
27	4053	1.000019568	18
27	4122	1.00002032	19
27	4192	1.0000204	20
27	4278	1.000020512	19
27	4347	1.000021264	20
27	4417	1.000021344	21
27	4499	1.000021456	20
27	4568	1.000022208	21
27	4638	1.000022288	22
27	4724	1.0000224	21
27	4793	1.000023152	22
27	4863	1.000023232	23
27	4945	1.000023344	22
27	5014	1.000024096	23
27	5084	1.000024176	24
27	5168	1.000024288	23
27	5237	1.00002504	24
27	5307	1.00002512	25
27	5391	1.000025232	24
27	5460	1.000025984	25
27	5530	1.000026064	26
27	5612	1.000026176	25
27	5681	1.000026928	26
27	5751	1.000027008	27
27	5837	1.00002712	26
27	5906	1.000027872	27
27	5976	1.000027952	28
27	6058	1.000028064	27
27	6127	1.000028816	28
27	6197	1.000028896	29
27	6281	1.000029008	28
27	6350	1.00002976	29
27	6420	1.00002984	30
27	6504	1.000029952	29
27	6573	1.000030704	30
27	6643	1.000030784	31
27	6727	1.000030896	30
27	6796	1.000031648	31
27	6866	1.000031728	32
27	6950	1.00003184	31
27	7019	1.000032592	32
27	7089	1.000032672	33
27	7175	1.000032784	32
27	7244	1.000033536	33
27	7314	1.000033616	34
27	7398	1.000033728	33
27	7467	1.00003448	34
27	7537	1.00003456	35
27	7621	1.000034672	34
27	7690	1.000035424	35
27	7760	1.000035504	36
27	7844	1.000035616	35
27	7913	1.000036368	36
27	7983	1.000036448	37
27	8067	1.00003656	36
27	8136	1.000037312	37
27	8206	1.000037392	38
27	8290	1.000037504	37
27	8359	1.000038256	38
27	8429	1.000038336	39
27	8511	1.000038448	38
27	8580	1.0000392	39
27	8650	1.00003928	40
27	8736	1.000039392	39
27	8805	1.000040144	40
27	8875	1.000040224	41
27	8957	1.000040336	40
27	9026	1.000041088	41
27	9096	1.000041168	42
27	9182	1.00004128	41
27	9251	1.000042032	42
27	9321	1.000042112	43
27	9405	1.000042224	42
27	9474	1.000042976	43
27	9544	1.000043056	44
27	9626	1.000043168	43
27	9695	1.00004392	44
27	9765	1.000044	45
27	9849	1.000044112	44
27	9918	1.000044864	45
27	9988	1.000044944	46
27	10072	1.000045056	45
27	10141	1.000045808	46
27	10211	1.000045888	47
27	10295	1.000046	46
27	10364	1.000046752	47
27	10434	1.000046832	48
27	10518	1.000046944	47
27	10587	1.000047696	48
27	10657	1.000047776	49
27	10743	1.000047888	48
27	10812	1.00004864	49
27	10882	1.00004872	50
27	10966	1.000048832	49
27	11035	1.000049584	50
27	11105	1.000049664	51
27	11191	1.000049776	50
27	11260	1.000050528	51
27	11330	1.000050608	52
27	11416	1.00005072	51
27	11485	1.000051472	52
27	11555	1.000051552	53
27	11639	1.000051664	52
27	11708	1.000052416	53
27	11778	1.000052496	54
27	11862	1.000052608	53
27	11931	1.00005336	54
27	12001	1.00005344	55
27	12085	1.000053552	54
27	12154	1.000054304	55
27	12224	1.000054384	56
27	12308	1.000054496	55
27	12377	1.000055248	56
27	12447	1.000055328	57
27	12531	1.00005544	56
27	12600	1.000056192	57
27	12670	1.000056272	58
27	12752	1.000056384	57
27	12821	1.000057136	58
27	12891	1.000057216	59
27	12975	1.000057328	58
27	13044	1.00005808	59
27	13114	1.00005816	60
27	13198	1.000058272	59
27	13267	1.000059024	60
27	13337	1.000059104	61
27	13421	1.000059216	60
27	13490	1.000059968	61
27	13560	1.000060048	62
27	13644	1.00006016	61
27	13713	1.000060912	62
27	13783	1.000060992	63
27	13867	1.000061104	62
27	13936	1.000061856	63
27	14006	1.000061936	64
27	14088	1.000062048	63
27	14157	1.0000628	64
27	14227	1.00006288	65
27	14311	1.000062992	64
27	14380	1.000063744	65
27	14450	1.000063824	66
27	14534	1.000063936	65
27	14603	1.000064688	66
27	14673	1.000064768	67
27	14757	1.00006488	66
27	14826	1.000065632	67
27	14896	1.000065712	68
27	14982	1.000065824	67
27	15051	1.000066576	68
27	15121	1.000066656	69
27	15205	1.000066768	68
27	15274	1.00006752	69
27	15344	1.0000676	70
27	15428	1.000067712	69
27	15497	1.000068464	70
27	15567	1.000068544	71
27	15651	1.000068656	70
27	15720	1.000069408	71
27	15790	1.000069488	72
27	15872	1.0000696	71
27	15941	1.000070352	72
27	16011	1.000070432	73
27	16093	1.000070544	72
27	16162	1.000071296	73
27	16232	1.000071376	74
27	16316	1.000071488	73
27	16385	1.00007224	74
27	16455	1.00007232	75
27	16539	1.000072432	74
27	16608	1.000073184	75
27	16678	1.000073264	76
27	16762	1.000073376	75
27	16831	1.000074128	76
27	16901	1.000074208	77
27	16985	1.00007432	76
27	17054	1.000075072	77
27	17124	1.000075152	78
27	17208	1.000075264	77
27	17277	1.000076016	78
27	17347	1.000076096	79
27	17429	1.000076208	78
27	17498	1.00007696	79
27	17568	1.00007704	80
27	17652	1.000077152	79
27	17721	1.000077904	80
27	17791	1.000077984	81
27	17877	1.000078096	80
27	17946	1.000078848	81
27	18016	1.000078928	82
27	18102	1.00007904	81
27	18171	1.000079792	82
27	18241	1.000079872	83
27	18325	1.000079984	82
27	18394	1.000080736	83
27	18464	1.000080816	84
27	18548	1.000080928	83
27	18617	1.00008168	84
27	18687	1.00008176	85
27	18771	1.000081872	84
27	18840	1.000082624	85
27	18910	1.000082704	86
27	18994	1.000082816	85
27	19063	1.000083568	86
27	19133	1.000083648	87
27	19219	1.00008376	86
27	19250	1.000084208	87
27	19297	1.000084512	88
27	19367	1.000084592	89
27	19453	1.000084704	88
27	19522	1.000085456	89
27	19592	1.000085536	90
27	19676	1.000085648	89
27	19745	1.0000864	90
27	19815	1.00008648	91
27	19899	1.000086592	90
27	19968	1.000087344	91
27	20038	1.000087424	92
27	20120	1.000087536	91
27	20189	1.000088288	92
27	20259	1.000088368	93
27	20343	1.00008848	92
27	20412	1.000089232	93
27	20482	1.000089312	94
27	20566	1.000089424	93
27	20635	1.000090176	94
27	20705	1.000090256	95
27	20789	1.000090368	94
27	20858	1.00009112	95
27	20928	1.0000912	96
27	21014	1.000091312	95
27	21083	1.000092064	96
27	21153	1.000092144	97
27	21237	1.000092256	96
27	21306	1.000093008	97
27	21376	1.000093088	98
27	21458	1.0000932	97
27	21527	1.000093952	98
27	21597	1.000094032	99
27	21681	1.000094144	98
27	21750	1.000094896	99
27	21820	1.000094976	100
27	21902	1.000095088	99
27	21971	1.00009584	100
27	22041	1.00009592	101
27	22125	1.000096032	100
27	22194	1.000096784	101
27	22264	1.000096864	102
27	22348	1.000096976	101
27	22417	1.000097728	102
27	22487	1.000097808	103
27	22571	1.00009792	102
28	0	0	0
28	141	1.000001712	1
28	141	1.000001712	0
28	231	1.000002544	1
28	240	1.000002544	2
28	414	1.000003488	3
28	422	1.00000352	2
28	525	1.000004352	3
28	594	1.000004464	2
28	696	1.000005296	3
28	705	1.000005296	4
28	801	1.000005408	3
28	908	1.00000624	4
28	917	1.00000624	5
28	1007	1.000006352	4
28	1123	1.000007184	5
28	1213	1.000007296	4
28	1243	1.000008048	5
28	1321	1.000008128	6
28	1407	1.00000824	5
28	1451	1.000008992	6
28	1517	1.000009072	7
28	1599	1.000009184	6
28	1659	1.000009936	7
28	1729	1.000010016	8
28	1821	1.000010128	7
28	1846	1.000010608	8
28	1900	1.00001088	9
28	1970	1.00001096	10
28	2056	1.000011072	9
28	2116	1.000011824	10
28	2186	1.000011904	11
28	2272	1.000012016	10
28	2341	1.000012768	11
28	2411	1.000012848	12
28	2497	1.00001296	11
28	2566	1.000013712	12
28	2636	1.000013792	13
28	2720	1.000013904	12
28	2789	1.000014656	13
28	2859	1.000014736	14
28	2941	1.000014848	13
28	3010	1.0000156	14
28	3080	1.00001568	15
28	3162	1.000015792	14
28	3231	1.000016544	15
28	3301	1.000016624	16
28	3383	1.000016736	15
28	3452	1.000017488	16
28	3522	1.000017568	17
28	3606	1.00001768	16
28	3675	1.000018432	17
28	3745	1.000018512	18
28	3829	1.000018624	17
28	3898	1.000019376	18
28	3968	1.000019456	19
28	4054	1.000019568	18
28	4123	1.00002032	19
28	4193	1.0000204	20
28	4279	1.000020512	19
28	4348	1.000021264	20
28	4418	1.000021344	21
28	4500	1.000021456	20
28	4569	1.000022208	21
28	4639	1.000022288	22
28	4725	1.0000224	21
28	4794	1.000023152	22
28	4864	1.000023232	23
28	4946	1.000023344	22
28	5015	1.000024096	23
28	5085	1.000024176	24
28	5169	1.000024288	23
28	5238	1.00002504	24
28	5308	1.00002512	25
28	5392	1.000025232	24
28	5461	1.000025984	25
28	5531	1.000026064	26
28	5613	1.000026176	25
28	5682	1.000026928	26
28	5752	1.000027008	27
28	5838	1.00002712	26
28	5907	1.000027872	27
28	5977	1.000027952	28
28	6059	1.000028064	27
28	6128	1.000028816	28
28	6198	1.000028896	29
28	6282	1.000029008	28
28	6351	1.00002976	29
28	6421	1.00002984	30
28	6505	1.000029952	29
28	6574	1.000030704	30
28	6644	1.000030784	31
28	6728	1.000030896	30
28	6797	1.000031648	31
28	6867	1.000031728	32
28	6951	1.00003184	31
28	7020	1.000032592	32
28	7090	1.000032672	33
28	7176	1.000032784	32
28	7245	1.000033536	33
28	7315	1.000033616	34
28	7399	1.000033728	33
28	7468	1.00003448	34
28	7538	1.00003456	35
28	7622	1.000034672	34
28	7691	1.000035424	35
28	7761	1.000035504	36
28	7845	1.000035616	35
28	7914	1.000036368	36
28	7984	1.000036448	37
28	8068	1.00003656	36
28	8137	1.000037312	37
28	8207	1.000037392	38
28	8291	1.000037504	37
28	8360	1.000038256	38
28	8430	1.000038336	39
28	8512	1.000038448	38
28	8581	1.0000392	39
28	8651	1.00003928	40
28	8737	1.000039392	39
28	8806	1.000040144	40
28	8876	1.000040224	41
28	8958	1.000040336	40
28	9027	1.000041088	41
28	9097	1.000041168	42
28	9183	1.00004128	41
28	9252	1.000042032	42
28	9322	1.000042112	43
28	9406	1.000042224	42
28	9475	1.000042976	43
28	9545	1.000043056	44
28	9627	1.000043168	43
28	9696	1.00004392	44
28	9766	1.000044	45
28	9850	1.000044112	44
28	9919	1.000044864	45
28	9989	1.000044944	46
28	10073	1.000045056	45
28	10142	1.000045808	46
28	10212	1.000045888	47
28	10296	1.000046	46
28	10365	1.000046752	47
28	10435	1.000046832	48
28	10519	1.000046944	47
28	10588	1.000047696	48
28	10658	1.000047776	49
28	10744	1.000047888	48
28	10813	1.00004864	49
28	10883	1.00004872	50
28	10967	1.000048832	49
28	11036	1.000049584	50
28	11106	1.000049664	51
28	11192	1.000049776	50
28	11261	1.000050528	51
28	11331	1.000050608	52
28	11417	1.00005072	51
28	11486	1.000051472	52
28	11556	1.000051552	53
28	11640	1.000051664	52
28	11709	1.000052416	53
28	11779	1.000052496	54
28	11863	1.000052608	53
28	11932	1.00005336	54
28	12002	1.00005344	55
28	12086	1.000053552	54
28	12155	1.000054304	55
28	12225	1.000054384	56
28	12309	1.000054496	55
28	12378	1.000055248	56
28	12448	1.000055328	57
28	12532	1.00005544	56
28	12601	1.000056192	57
28	12671	1.000056272	58
28	12753	1.000056384	57
28	12822	1.000057136	58
28	12892	1.000057216	59
28	12976	1.000057328	58
28	13045	1.00005808	59
28	13115	1.00005816	60
28	13199	1.000058272	59
28	13268	1.000059024	60
28	13338	1.000059104	61
28	13422	1.000059216	60
28	13491	1.000059968	61
28	13561	1.000060048	62
28	13645	1.00006016	61
28	13714	1.000060912	62
28	13784	1.000060992	63
28	13868	1.000061104	62
28	13937	1.000061856	63
28	14007	1.000061936	64
28	14089	1.000062048	63
28	14158	1.0000628	64
28	14228	1.00006288	65
28	14312	1.000062992	64
28	14381	1.000063744	65
28	14451	1.000063824	66
28	14535	1.000063936	65
28	14604	1.000064688	66
28	14674	1.000064768	67
28	14758	1.00006488	66
28	14827	1.000065632	67
28	14897	1.000065712	68
28	14983	1.000065824	67
28	15052	1.000066576	68
28	15122	1.000066656	69
28	15206	1.000066768	68
28	15275	1.00006752	69
28	15345	1.0000676	70
28	15429	1.000067712	69
28	15498	1.000068464	70
28	15568	1.000068544	71
28	15652	1.000068656	70
28	15721	1.000069408	71
28	15791	1.000069488	72
28	15873	1.0000696	71
28	15942	1.000070352	72
28	16012	1.000070432	73
28	16094	1.000070544	72
28	16163	1.000071296	73
28	16233	1.000071376	74
28	16317	1.000071488	73
28	16386	1.00007224	74
28	16456	1.00007232	75
28	16540	1.000072432	74
28	16609	1.000073184	75
28	16679	1.000073264	76
28	16763	1.000073376	75
28	16832	1.000074128	76
28	16902	1.000074208	77
28	16986	1.00007432	76
28	17055	1.000075072	77
28	17125	1.000075152	78
28	17209	1.000075264	77
28	17278	1.000076016	78
28	17348	1.000076096	79
28	17430	1.000076208	78
28	17499	1.00007696	79
28	17569	1.00007704	80
28	17653	1.000077152	79
28	17722	1.000077904	80
28	17792	1.000077984	81
28	17878	1.000078096	80
28	17947	1.000078848	81
28	18017	1.000078928	82
28	18103	1.00007904	81
28	18172	1.000079792	82
28	18242	1.000079872	83
28	18326	1.000079984	82
28	18395	1.000080736	83
28	18465	1.000080816	84
28	18549	1.000080928	83
28	18618	1.00008168	84
28	18688	1.00008176	85
28	18772	1.000081872	84
28	18841	1.000082624	85
28	18911	1.000082704	86
28	18995	1.000082816	85
28	19064	1.000083568	86
28	19134	1.000083648	87
28	19220	1.00008376	86
28	19298	1.000084512	87
28	19368	1.000084592	88
28	19454	1.000084704	87
28	19523	1.000085456	88
28	19593	1.000085536	89
28	19677	1.000085648	88
28	19746	1.0000864	89
28	19816	1.00008648	90
28	19900	1.000086592	89
28	19969	1.000087344	90
28	20039	1.000087424	91
28	20121	1.000087536	90
28	20190	1.000088288	91
28	20260	1.000088368	92
28	20344	1.00008848	91
28	20413	1.000089232	92
28	20483	1.000089312	93
28	20567	1.000089424	92
28	20636	1.000090176	93
28	20706	1.000090256	94
28	20790	1.000090368	93
28	20859	1.00009112	94
28	20929	1.0000912	95
28	21015	1.000091312	94
28	21084	1.000092064	95
28	21154	1.000092144	96
28	21238	1.000092256	95
28	21307	1.000093008	96
28	21377	1.000093088	97
28	21459	1.0000932	96
28	21528	1.000093952	97
28	21598	1.000094032	98
28	21682	1.000094144	97
28	21751	1.000094896	98
28	21821	1.000094976	99
28	21903	1.000095088	98
28	21972	1.00009584	99
28	22042	1.00009592	100
28	22126	1.000096032	99
28	22195	1.000096784	100
28	22265	1.000096864	101
28	22349	1.000096976	100
28	22418	1.000097728	101
28	22488	1.000097808	102
28	22572	1.00009792	101
29	0	0	0
29	142	1.000001712	1
29	142	1.000001712	0
29	241	1.000002544	1
29	415	1.000003488	2
29	423	1.00000352	1
29	595	1.000004464	0
29	697	1.000005296	1
29	802	1.000005408	0
29	909	1.00000624	1
29	1124	1.000007184	2
29	1148	1.000007216	1
29	1322	1.000008128	2
29	1346	1.00000816	1
29	1518	1.000009072	2
29	1542	1.000009104	1
29	1730	1.000010016	2
29	1756	1.000010048	1
29	1847	1.000010608	2
29	1971	1.00001096	3
29	1999	1.000010992	2
29	2187	1.000011904	3
29	2215	1.000011936	2
29	2412	1.000012848	3
29	2440	1.00001288	2
29	2637	1.000013792	3
29	2663	1.000013824	2
29	2860	1.000014736	3
29	2884	1.000014768	2
29	3081	1.00001568	3
29	3105	1.000015712	2
29	3302	1.000016624	3
29	3326	1.000016656	2
29	3523	1.000017568	3
29	3549	1.0000176	2
29	3746	1.000018512	3
29	3772	1.000018544	2
29	3969	1.000019456	3
29	3997	1.000019488	2
29	4194	1.0000204	3
29	4222	1.000020432	2
29	4419	1.000021344	3
29	4443	1.000021376	2
29	4640	1.000022288	3
29	4668	1.00002232	2
29	4865	1.000023232	3
29	4889	1.000023264	2
29	5086	1.000024176	3
29	5112	1.000024208	2
29	5309	1.00002512	3
29	5335	1.000025152	2
29	5532	1.000026064	3
29	5556	1.000026096	2
29	5753	1.000027008	3
29	5781	1.00002704	2
29	5978	1.000027952	3
29	6002	1.000027984	2
29	6199	1.000028896	3
29	6225	1.000028928	2
29	6422	1.00002984	3
29	6448	1.000029872	2
29	6645	1.000030784	3
29	6671	1.000030816	2
29	6868	1.000031728	3
29	6894	1.00003176	2
29	7091	1.000032672	3
29	7119	1.000032704	2
29	7316	1.000033616	3
29	7342	1.000033648	2
29	7539	1.00003456	3
29	7565	1.000034592	2
29	7762	1.000035504	3
29	7788	1.000035536	2
29	7985	1.000036448	3
29	8011	1.00003648	2
29	8208	1.000037392	3
29	8234	1.000037424	2
29	8431	1.000038336	3
29	8455	1.000038368	2
29	8652	1.00003928	3
29	8680	1.000039312	2
29	8877	1.000040224	3
29	8901	1.000040256	2
29	9098	1.000041168	3
29	9126	1.0000412	2
29	9323	1.000042112	3
29	9349	1.000042144	2
29	9546	1.000043056	3
29	9570	1.000043088	2
29	9767	1.000044	3
29	9793	1.000044032	2
29	9990	1.000044944	3
29	10016	1.000044976	2
29	10213	1.000045888	3
29	10239	1.00004592	2
29	10436	1.000046832	3
29	10462	1.000046864	2
29	10659	1.000047776	3
29	10687	1.000047808	2
29	10884	1.00004872	3
29	10910	1.000048752	2
29	11107	1.000049664	3
29	11135	1.000049696	2
29	11332	1.000050608	3
29	11360	1.00005064	2
29	11557	1.000051552	3
29	11583	1.000051584	2
29	11780	1.000052496	3
29	11806	1.000052528	2
29	12003	1.00005344	3
29	12029	1.000053472	2
29	12226	1.000054384	3
29	12252	1.000054416	2
29	12449	1.000055328	3
29	12475	1.00005536	2
29	12672	1.000056272	3
29	12696	1.000056304	2
29	12893	1.000057216	3
29	12919	1.000057248	2
29	13116	1.00005816	3
29	13142	1.000058192	2
29	13339	1.000059104	3
29	13365	1.000059136	2
29	13562	1.000060048	3
29	13588	1.00006008	2
29	13785	1.000060992	3
29	13811	1.000061024	2
29	14008	1.000061936	3
29	14032	1.000061968	2
29	14229	1.00006288	3
29	14255	1.000062912	2
29	14452	1.000063824	3
29	14478	1.000063856	2
29	14675	1.000064768	3
29	14701	1.0000648	2
29	14898	1.000065712	3
29	14926	1.000065744	2
29	15123	1.000066656	3
29	15149	1.000066688	2
29	15346	1.0000676	3
29	15372	1.000067632	2
29	15569	1.000068544	3
29	15595	1.000068576	2
29	15792	1.000069488	3
29	15816	1.00006952	2
29	16013	1.000070432	3
29	16037	1.000070464	2
29	16234	1.000071376	3
29	16260	1.000071408	2
29	16457	1.00007232	3
29	16483	1.000072352	2
29	16680	1.000073264	3
29	16706	1.000073296	2
29	16903	1.000074208	3
29	16929	1.00007424	2
29	17126	1.000075152	3
29	17152	1.000075184	2
29	17349	1.000076096	3
29	17373	1.000076128	2
29	17570	1.00007704	3
29	17596	1.000077072	2
29	17793	1.000077984	3
29	17821	1.000078016	2
29	18018	1.000078928	3
29	18046	1.00007896	2
29	18243	1.000079872	3
29	18269	1.000079904	2
29	18466	1.000080816	3
29	18492	1.000080848	2
29	18689	1.00008176	3
29	18715	1.000081792	2
29	18912	1.000082704	3
29	18938	1.000082736	2
29	19135	1.000083648	3
29	19163	1.00008368	2
29	19251	1.000084208	3
29	19369	1.000084592	4
29	19397	1.000084624	3
29	19594	1.000085536	4
29	19620	1.000085568	3
29	19817	1.00008648	4
29	19843	1.000086512	3
29	20040	1.000087424	4
29	20064	1.000087456	3
29	20261	1.000088368	4
29	20287	1.0000884	3
29	20484	1.000089312	4
29	20510	1.000089344	3
29	20707	1.000090256	4
29	20733	1.000090288	3
29	20930	1.0000912	4
29	20958	1.000091232	3
29	21155	1.000092144	4
29	21181	1.000092176	3
29	21378	1.000093088	4
29	21402	1.00009312	3
29	21599	1.000094032	4
29	21625	1.000094064	3
29	21822	1.000094976	4
29	21846	1.000095008	3
29	22043	1.00009592	4
29	22069	1.000095952	3
29	22266	1.000096864	4
29	22292	1.000096896	3
29	22489	1.000097808	4
29	22515	1.00009784	3
30	0	0	0
30	143	1.000001712	1
30	143	1.000001712	0
30	232	1.000002544	1
30	424	1.00000352	0
30	526	1.000004352	1
30	596	1.000004464	0
30	706	1.000005296	1
30	918	1.00000624	2
30	942	1.000006272	1
30	1150	1.000007216	0
30	1244	1.000008048	1
30	1348	1.00000816	0
30	1452	1.000008992	1
30	1660	1.000009936	2
30	1679	1.000009968	1
30	1848	1.000010608	2
30	1901	1.00001088	3
30	1920	1.000010912	2
30	2117	1.000011824	3
30	2136	1.000011856	2
30	2342	1.000012768	3
30	2361	1.0000128	2
30	2567	1.000013712	3
30	2586	1.000013744	2
30	2790	1.000014656	3
30	2809	1.000014688	2
30	3011	1.0000156	3
30	3030	1.000015632	2
30	3232	1.000016544	3
30	3251	1.000016576	2
30	3453	1.000017488	3
30	3472	1.00001752	2
30	3676	1.000018432	3
30	3695	1.000018464	2
30	3899	1.000019376	3
30	3918	1.000019408	2
30	4124	1.00002032	3
30	4143	1.000020352	2
30	4349	1.000021264	3
30	4368	1.000021296	2
30	4570	1.000022208	3
30	4589	1.00002224	2
30	4795	1.000023152	3
30	4814	1.000023184	2
30	5016	1.000024096	3
30	5035	1.000024128	2
30	5239	1.00002504	3
30	5258	1.000025072	2
30	5462	1.000025984	3
30	5481	1.000026016	2
30	5683	1.000026928	3
30	5702	1.00002696	2
30	5908	1.000027872	3
30	5927	1.000027904	2
30	6129	1.000028816	3
30	6148	1.000028848	2
30	6352	1.00002976	3
30	6371	1.000029792	2
30	6575	1.000030704	3
30	6594	1.000030736	2
30	6798	1.000031648	3
30	6817	1.00003168	2
30	7021	1.000032592	3
30	7040	1.000032624	2
30	7246	1.000033536	3
30	7265	1.000033568	2
30	7469	1.00003448	3
30	7488	1.000034512	2
30	7692	1.000035424	3
30	7711	1.000035456	2
30	7915	1.000036368	3
30	7934	1.0000364	2
30	8138	1.000037312	3
30	8157	1.000037344	2
30	8361	1.000038256	3
30	8380	1.000038288	2
30	8582	1.0000392	3
30	8601	1.000039232	2
30	8807	1.000040144	3
30	8826	1.000040176	2
30	9028	1.000041088	3
30	9047	1.00004112	2
30	9253	1.000042032	3
30	9272	1.000042064	2
30	9476	1.000042976	3
30	9495	1.000043008	2
30	9697	1.00004392	3
30	9716	1.000043952	2
30	9920	1.000044864	3
30	9939	1.000044896	2
30	10143	1.000045808	3
30	10162	1.00004584	2
30	10366	1.000046752	3
30	10385	1.000046784	2
30	10589	1.000047696	3
30	10608	1.000047728	2
30	10814	1.00004864	3
30	10833	1.000048672	2
30	11037	1.000049584	3
30	11056	1.000049616	2
30	11262	1.000050528	3
30	11281	1.00005056	2
30	11487	1.000051472	3
30	11506	1.000051504	2
30	11710	1.000052416	3
30	11729	1.000052448	2
30	11933	1.00005336	3
30	11952	1.000053392	2
30	12156	1.000054304	3
30	12175	1.000054336	2
30	12379	1.000055248	3
30	12398	1.00005528	2
30	12602	1.000056192	3
30	12621	1.000056224	2
30	12823	1.000057136	3
30	12842	1.000057168	2
30	13046	1.00005808	3
30	13065	1.000058112	2
30	13269	1.000059024	3
30	13288	1.000059056	2
30	13492	1.000059968	3
30	13511	1.00006	2
30	13715	1.000060912	3
30	13734	1.000060944	2
30	13938	1.000061856	3
30	13957	1.000061888	2
30	14159	1.0000628	3
30	14178	1.000062832	2
30	14382	1.000063744	3
30	14401	1.000063776	2
30	14605	1.000064688	3
30	14624	1.00006472	2
30	14828	1.000065632	3
30	14847	1.000065664	2
30	15053	1.000066576	3
30	15072	1.000066608	2
30	15276	1.00006752	3
30	15295	1.000067552	2
30	15499	1.000068464	3
30	15518	1.000068496	2
30	15722	1.000069408	3
30	15741	1.00006944	2
30	15943	1.000070352	3
30	15962	1.000070384	2
30	16164	1.000071296	3
30	16183	1.000071328	2
30	16387	1.00007224	3
30	16406	1.000072272	2
30	16610	1.000073184	3
30	16629	1.000073216	2
30	16833	1.000074128	3
30	16852	1.00007416	2
30	17056	1.000075072	3
30	17075	1.000075104	2
30	17279	1.000076016	3
30	17298	1.000076048	2
30	17500	1.00007696	3
30	17519	1.000076992	2
30	17723	1.000077904	3
30	17742	1.000077936	2
30	17948	1.000078848	3
30	17967	1.00007888	2
30	18173	1.000079792	3
30	18192	1.000079824	2
30	18396	1.000080736	3
30	18415	1.000080768	2
30	18619	1.00008168	3
30	18638	1.000081712	2
30	18842	1.000082624	3
30	18861	1.000082656	2
30	19065	1.000083568	3
30	19084	1.0000836	2
30	19252	1.000084208	3
30	19299	1.000084512	4
30	19318	1.000084544	3
30	19524	1.000085456	4
30	19543	1.000085488	3
30	19747	1.0000864	4
30	19766	1.000086432	3
30	19970	1.000087344	4
30	19989	1.000087376	3
30	20191	1.000088288	4
30	20210	1.00008832	3
30	20414	1.000089232	4
30	20433	1.000089264	3
30	20637	1.000090176	4
30	20656	1.000090208	3
30	20860	1.00009112	4
30	20879	1.000091152	3
30	21085	1.000092064	4
30	21104	1.000092096	3
30	21308	1.000093008	4
30	21327	1.00009304	3
30	21529	1.000093952	4
30	21548	1.000093984	3
30	21752	1.000094896	4
30	21771	1.000094928	3
30	21973	1.00009584	4
30	21992	1.000095872	3
30	22196	1.000096784	4
30	22215	1.000096816	3
30	22419	1.000097728	4
30	22438	1.00009776	3
31	0	0	0
31	51	1	1
31	51	1	0
32	0	0	0
33	0	0	0
33	52	1	1
33	52	1	0
34	0	0	0
34	109	1.000001696	1
34	109	1.000001696	0
34	288	1.00000264	1
34	288	1.00000264	0
34	362	1.000003424	1
34	370	1.000003424	2
34	452	1.000003584	1
34	476	1.000003584	2
34	563	1.000004368	3
34	571	1.000004368	4
34	758	1.000005392	3
34	794	1.000005392	4
34	842	1.000006176	5
34	847	1.000006176	6
34	964	1.000006336	5
34	1000	1.000006336	6
34	1063	1.00000712	7
34	1068	1.00000712	8
34	1174	1.00000728	7
34	1206	1.00000728	8
34	1269	1.000008064	9
34	1274	1.000008064	10
34	1368	1.000008224	9
34	1400	1.000008224	10
34	1560	1.000009168	9
34	1592	1.000009168	10
34	1632	1.000009872	11
34	1637	1.000009872	12
34	1776	1.000010112	11
34	1814	1.000010112	12
34	1873	1.000010816	13
34	1878	1.000010816	14
34	2017	1.000011056	13
34	2049	1.000011056	14
34	2089	1.00001176	15
34	2094	1.00001176	16
34	2233	1.000012	15
34	2265	1.000012	16
34	2314	1.000012704	17
34	2319	1.000012704	18
34	2458	1.000012944	17
34	2490	1.000012944	18
34	2539	1.000013648	19
34	2544	1.000013648	20
34	2681	1.000013888	19
34	2713	1.000013888	20
34	2762	1.000014592	21
34	2767	1.000014592	22
34	2902	1.000014832	21
34	2934	1.000014832	22
34	2983	1.000015536	23
34	2988	1.000015536	24
34	3123	1.000015776	23
34	3155	1.000015776	24
34	3204	1.00001648	25
34	3209	1.00001648	26
34	3344	1.00001672	25
34	3376	1.00001672	26
34	3425	1.000017424	27
34	3430	1.000017424	28
34	3567	1.000017664	27
34	3599	1.000017664	28
34	3648	1.000018368	29
34	3653	1.000018368	30
34	3790	1.000018608	29
34	3822	1.000018608	30
34	3871	1.000019312	31
34	3876	1.000019312	32
34	4015	1.000019552	31
34	4047	1.000019552	32
34	4096	1.000020256	33
34	4101	1.000020256	34
34	4240	1.000020496	33
34	4272	1.000020496	34
34	4321	1.0000212	35
34	4326	1.0000212	36
34	4461	1.00002144	35
34	4493	1.00002144	36
34	4542	1.000022144	37
34	4547	1.000022144	38
34	4686	1.000022384	37
34	4718	1.000022384	38
34	4767	1.000023088	39
34	4772	1.000023088	40
34	4907	1.000023328	39
34	4939	1.000023328	40
34	4988	1.000024032	41
34	4993	1.000024032	42
34	5130	1.000024272	41
34	5162	1.000024272	42
34	5211	1.000024976	43
34	5216	1.000024976	44
34	5353	1.000025216	43
34	5385	1.000025216	44
34	5434	1.00002592	45
34	5439	1.00002592	46
34	5574	1.00002616	45
34	5606	1.00002616	46
34	5655	1.000026864	47
34	5660	1.000026864	48
34	5799	1.000027104	47
34	5831	1.000027104	48
34	5880	1.000027808	49
34	5885	1.000027808	50
34	6020	1.000028048	49
34	6052	1.000028048	50
34	6101	1.000028752	51
34	6106	1.000028752	52
34	6243	1.000028992	51
34	6275	1.000028992	52
34	6324	1.000029696	53
34	6329	1.000029696	54
34	6466	1.000029936	53
34	6498	1.000029936	54
34	6547	1.00003064	55
34	6552	1.00003064	56
34	6689	1.00003088	55
34	6721	1.00003088	56
34	6770	1.000031584	57
34	6775	1.000031584	58
34	6912	1.000031824	57
34	6944	1.000031824	58
34	6993	1.000032528	59
34	6998	1.000032528	60
34	7137	1.000032768	59
34	7169	1.000032768	60
34	7218	1.000033472	61
34	7223	1.000033472	62
34	7360	1.000033712	61
34	7392	1.000033712	62
34	7441	1.000034416	63
34	7446	1.000034416	64
34	7583	1.000034656	63
34	7615	1.000034656	64
34	7664	1.00003536	65
34	7669	1.00003536	66
34	7806	1.0000356	65
34	7838	1.0000356	66
34	7887	1.000036304	67
34	7892	1.000036304	68
34	8029	1.000036544	67
34	8061	1.000036544	68
34	8110	1.000037248	69
34	8115	1.000037248	70
34	8252	1.000037488	69
34	8284	1.000037488	70
34	8333	1.000038192	71
34	8338	1.000038192	72
34	8473	1.000038432	71
34	8505	1.000038432	72
34	8554	1.000039136	73
34	8559	1.000039136	74
34	8698	1.000039376	73
34	8730	1.000039376	74
34	8779	1.00004008	75
34	8784	1.00004008	76
34	8919	1.00004032	75
34	8951	1.00004032	76
34	9000	1.000041024	77
34	9005	1.000041024	78
34	9144	1.000041264	77
34	9176	1.000041264	78
34	9225	1.000041968	79
34	9230	1.000041968	80
34	9367	1.000042208	79
34	9399	1.000042208	80
34	9448	1.000042912	81
34	9453	1.000042912	82
34	9588	1.000043152	81
34	9620	1.000043152	82
34	9669	1.000043856	83
34	9674	1.000043856	84
34	9811	1.000044096	83
34	9843	1.000044096	84
34	9892	1.0000448	85
34	9897	1.0000448	86
34	10034	1.00004504	85
34	10066	1.00004504	86
34	10115	1.000045744	87
34	10120	1.000045744	88
34	10257	1.000045984	87
34	10289	1.000045984	88
34	10338	1.000046688	89
34	10343	1.000046688	90
34	10480	1.000046928	89
34	10512	1.000046928	90
34	10561	1.000047632	91
34	10566	1.000047632	92
34	10705	1.000047872	91
34	10737	1.000047872	92
34	10786	1.000048576	93
34	10791	1.000048576	94
34	10928	1.000048816	93
34	10960	1.000048816	94
34	11009	1.00004952	95
34	11014	1.00004952	96
34	11153	1.00004976	95
34	11185	1.00004976	96
34	11234	1.000050464	97
34	11239	1.000050464	98
34	11378	1.000050704	97
34	11410	1.000050704	98
34	11459	1.000051408	99
34	11464	1.000051408	100
34	11601	1.000051648	99
34	11633	1.000051648	100
34	11682	1.000052352	101
34	11687	1.000052352	102
34	11824	1.000052592	101
34	11856	1.000052592	102
34	11905	1.000053296	103
34	11910	1.000053296	104
34	12047	1.000053536	103
34	12079	1.000053536	104
34	12128	1.00005424	105
34	12133	1.00005424	106
34	12270	1.00005448	105
34	12302	1.00005448	106
34	12351	1.000055184	107
34	12356	1.000055184	108
34	12493	1.000055424	107
34	12525	1.000055424	108
34	12574	1.000056128	109
34	12579	1.000056128	110
34	12714	1.000056368	109
34	12746	1.000056368	110
34	12795	1.000057072	111
34	12800	1.000057072	112
34	12937	1.000057312	111
34	12969	1.000057312	112
34	13018	1.000058016	113
34	13023	1.000058016	114
34	13160	1.000058256	113
34	13192	1.000058256	114
34	13241	1.00005896	115
34	13246	1.00005896	116
34	13383	1.0000592	115
34	13415	1.0000592	116
34	13464	1.000059904	117
34	13469	1.000059904	118
34	13606	1.000060144	117
34	13638	1.000060144	118
34	13687	1.000060848	119
34	13692	1.000060848	120
34	13829	1.000061088	119
34	13861	1.000061088	120
34	13910	1.000061792	121
34	13915	1.000061792	122
34	14050	1.000062032	121
34	14082	1.000062032	122
34	14131	1.000062736	123
34	14136	1.000062736	124
34	14273	1.000062976	123
34	14305	1.000062976	124
34	14354	1.00006368	125
34	14359	1.00006368	126
34	14496	1.00006392	125
34	14528	1.00006392	126
34	14577	1.000064624	127
34	14582	1.000064624	128
34	14719	1.000064864	127
34	14751	1.000064864	128
34	14800	1.000065568	129
34	14805	1.000065568	130
34	14944	1.000065808	129
34	14976	1.000065808	130
34	15025	1.000066512	131
34	15030	1.000066512	132
34	15167	1.000066752	131
34	15199	1.000066752	132
34	15248	1.000067456	133
34	15253	1.000067456	134
34	15390	1.000067696	133
34	15422	1.000067696	134
34	15471	1.0000684	135
34	15476	1.0000684	136
34	15613	1.00006864	135
34	15645	1.00006864	136
34	15694	1.000069344	137
34	15699	1.000069344	138
34	15834	1.000069584	137
34	15866	1.000069584	138
34	15915	1.000070288	139
34	15920	1.000070288	140
34	16055	1.000070528	139
34	16087	1.000070528	140
34	16136	1.000071232	141
34	16141	1.000071232	142
34	16278	1.000071472	141
34	16310	1.000071472	142
34	16359	1.000072176	143
34	16364	1.000072176	144
34	16501	1.000072416	143
34	16533	1.000072416	144
34	16582	1.00007312	145
34	16587	1.00007312	146
34	16724	1.00007336	145
34	16756	1.00007336	146
34	16805	1.000074064	147
34	16810	1.000074064	148
34	16947	1.000074304	147
34	16979	1.000074304	148
34	17028	1.000075008	149
34	17033	1.000075008	150
34	17170	1.000075248	149
34	17202	1.000075248	150
34	17251	1.000075952	151
34	17256	1.000075952	152
34	17391	1.000076192	151
34	17423	1.000076192	152
34	17472	1.000076896	153
34	17477	1.000076896	154
34	17614	1.000077136	153
34	17646	1.000077136	154
34	17695	1.00007784	155
34	17700	1.00007784	156
34	17839	1.00007808	155
34	17871	1.00007808	156
34	17920	1.000078784	157
34	17925	1.000078784	158
34	18064	1.000079024	157
34	18096	1.000079024	158
34	18145	1.000079728	159
34	18150	1.000079728	160
34	18287	1.000079968	159
34	18319	1.000079968	160
34	18368	1.000080672	161
34	18373	1.000080672	162
34	18510	1.000080912	161
34	18542	1.000080912	162
34	18591	1.000081616	163
34	18596	1.000081616	164
34	18733	1.000081856	163
34	18765	1.000081856	164
34	18814	1.00008256	165
34	18819	1.00008256	166
34	18956	1.0000828	165
34	18988	1.0000828	166
34	19037	1.000083504	167
34	19042	1.000083504	168
34	19181	1.000083744	167
34	19213	1.000083744	168
34	19271	1.000084448	169
34	19276	1.000084448	170
34	19415	1.000084688	169
34	19447	1.000084688	170
34	19496	1.000085392	171
34	19501	1.000085392	172
34	19638	1.000085632	171
34	19670	1.000085632	172
34	19719	1.000086336	173
34	19724	1.000086336	174
34	19861	1.000086576	173
34	19893	1.000086576	174
34	19942	1.00008728	175
34	19947	1.00008728	176
34	20082	1.00008752	175
34	20114	1.00008752	176
34	20163	1.000088224	177
34	20168	1.000088224	178
34	20305	1.000088464	177
34	20337	1.000088464	178
34	20386	1.000089168	179
34	20391	1.000089168	180
34	20528	1.000089408	179
34	20560	1.000089408	180
34	20609	1.000090112	181
34	20614	1.000090112	182
34	20751	1.000090352	181
34	20783	1.000090352	182
34	20832	1.000091056	183
34	20837	1.000091056	184
34	20976	1.000091296	183
34	21008	1.000091296	184
34	21057	1.000092	185
34	21062	1.000092	186
34	21199	1.00009224	185
34	21231	1.00009224	186
34	21280	1.000092944	187
34	21285	1.000092944	188
34	21420	1.000093184	187
34	21452	1.000093184	188
34	21501	1.000093888	189
34	21506	1.000093888	190
34	21643	1.000094128	189
34	21675	1.000094128	190
34	21724	1.000094832	191
34	21729	1.000094832	192
34	21864	1.000095072	191
34	21896	1.000095072	192
34	21945	1.000095776	193
34	21950	1.000095776	194
34	22087	1.000096016	193
34	22119	1.000096016	194
34	22168	1.00009672	195
34	22173	1.00009672	196
34	22310	1.00009696	195
34	22342	1.00009696	196
34	22391	1.000097664	197
34	22396	1.000097664	198
34	22533	1.000097904	197
34	22565	1.000097904	198
35	0	0	0
35	110	1.000001696	1
35	110	1.000001696	0
35	289	1.00000264	1
35	289	1.00000264	0
35	363	1.000003424	1
35	371	1.000003424	2
35	453	1.000003584	1
35	477	1.000003584	2
35	564	1.000004368	3
35	572	1.000004368	4
35	613	1.000005008	5
35	759	1.000005392	4
35	795	1.000005392	5
35	843	1.000006176	6
35	848	1.000006176	7
35	965	1.000006336	6
35	1001	1.000006336	7
35	1064	1.00000712	8
35	1069	1.00000712	9
35	1175	1.00000728	8
35	1207	1.00000728	9
35	1270	1.000008064	10
35	1275	1.000008064	11
35	1369	1.000008224	10
35	1401	1.000008224	11
35	1561	1.000009168	10
35	1593	1.000009168	11
35	1633	1.000009872	12
35	1638	1.000009872	13
35	1777	1.000010112	12
35	1801	1.000010112	13
35	1815	1.000010112	14
35	1874	1.000010816	15
35	1879	1.000010816	16
35	2018	1.000011056	15
35	2050	1.000011056	16
35	2090	1.00001176	17
35	2095	1.00001176	18
35	2234	1.000012	17
35	2266	1.000012	18
35	2315	1.000012704	19
35	2320	1.000012704	20
35	2459	1.000012944	19
35	2491	1.000012944	20
35	2540	1.000013648	21
35	2545	1.000013648	22
35	2682	1.000013888	21
35	2714	1.000013888	22
35	2763	1.000014592	23
35	2768	1.000014592	24
35	2903	1.000014832	23
35	2935	1.000014832	24
35	2984	1.000015536	25
35	2989	1.000015536	26
35	3124	1.000015776	25
35	3156	1.000015776	26
35	3205	1.00001648	27
35	3210	1.00001648	28
35	3345	1.00001672	27
35	3377	1.00001672	28
35	3426	1.000017424	29
35	3431	1.000017424	30
35	3568	1.000017664	29
35	3600	1.000017664	30
35	3649	1.000018368	31
35	3654	1.000018368	32
35	3791	1.000018608	31
35	3823	1.000018608	32
35	3872	1.000019312	33
35	3877	1.000019312	34
35	4016	1.000019552	33
35	4048	1.000019552	34
35	4097	1.000020256	35
35	4102	1.000020256	36
35	4241	1.000020496	35
35	4273	1.000020496	36
35	4322	1.0000212	37
35	4327	1.0000212	38
35	4462	1.00002144	37
35	4494	1.00002144	38
35	4543	1.000022144	39
35	4548	1.000022144	40
35	4687	1.000022384	39
35	4719	1.000022384	40
35	4768	1.000023088	41
35	4773	1.000023088	42
35	4908	1.000023328	41
35	4940	1.000023328	42
35	4989	1.000024032	43
35	4994	1.000024032	44
35	5131	1.000024272	43
35	5163	1.000024272	44
35	5212	1.000024976	45
35	5217	1.000024976	46
35	5354	1.000025216	45
35	5386	1.000025216	46
35	5435	1.00002592	47
35	5440	1.00002592	48
35	5575	1.00002616	47
35	5607	1.00002616	48
35	5656	1.000026864	49
35	5661	1.000026864	50
35	5800	1.000027104	49
35	5832	1.000027104	50
35	5881	1.000027808	51
35	5886	1.000027808	52
35	6021	1.000028048	51
35	6053	1.000028048	52
35	6102	1.000028752	53
35	6107	1.000028752	54
35	6244	1.000028992	53
35	6276	1.000028992	54
35	6325	1.000029696	55
35	6330	1.000029696	56
35	6467	1.000029936	55
35	6499	1.000029936	56
35	6548	1.00003064	57
35	6553	1.00003064	58
35	6690	1.00003088	57
35	6722	1.00003088	58
35	6771	1.000031584	59
35	6776	1.000031584	60
35	6913	1.000031824	59
35	6945	1.000031824	60
35	6994	1.000032528	61
35	6999	1.000032528	62
35	7138	1.000032768	61
35	7170	1.000032768	62
35	7219	1.000033472	63
35	7224	1.000033472	64
35	7361	1.000033712	63
35	7393	1.000033712	64
35	7442	1.000034416	65
35	7447	1.000034416	66
35	7584	1.000034656	65
35	7616	1.000034656	66
35	7665	1.00003536	67
35	7670	1.00003536	68
35	7807	1.0000356	67
35	7839	1.0000356	68
35	7888	1.000036304	69
35	7893	1.000036304	70
35	8030	1.000036544	69
35	8062	1.000036544	70
35	8111	1.000037248	71
35	8116	1.000037248	72
35	8253	1.000037488	71
35	8285	1.000037488	72
35	8334	1.000038192	73
35	8339	1.000038192	74
35	8474	1.000038432	73
35	8506	1.000038432	74
35	8555	1.000039136	75
35	8560	1.000039136	76
35	8699	1.000039376	75
35	8731	1.000039376	76
35	8780	1.00004008	77
35	8785	1.00004008	78
35	8920	1.00004032	77
35	8952	1.00004032	78
35	9001	1.000041024	79
35	9006	1.000041024	80
35	9145	1.000041264	79
35	9177	1.000041264	80
35	9226	1.000041968	81
35	9231	1.000041968	82
35	9368	1.000042208	81
35	9400	1.000042208	82
35	9449	1.000042912	83
35	9454	1.000042912	84
35	9589	1.000043152	83
35	9621	1.000043152	84
35	9670	1.000043856	85
35	9675	1.000043856	86
35	9812	1.000044096	85
35	9844	1.000044096	86
35	9893	1.0000448	87
35	9898	1.0000448	88
35	10035	1.00004504	87
35	10067	1.00004504	88
35	10116	1.000045744	89
35	10121	1.000045744	90
35	10258	1.000045984	89
35	10290	1.000045984	90
35	10339	1.000046688	91
35	10344	1.000046688	92
35	10481	1.000046928	91
35	10513	1.000046928	92
35	10562	1.000047632	93
35	10567	1.000047632	94
35	10706	1.000047872	93
35	10738	1.000047872	94
35	10787	1.000048576	95
35	10792	1.000048576	96
35	10929	1.000048816	95
35	10961	1.000048816	96
35	11010	1.00004952	97
35	11015	1.00004952	98
35	11154	1.00004976	97
35	11186	1.00004976	98
35	11235	1.000050464	99
35	11240	1.000050464	100
35	11379	1.000050704	99
35	11411	1.000050704	100
35	11460	1.000051408	101
35	11465	1.000051408	102
35	11602	1.000051648	101
35	11634	1.000051648	102
35	11683	1.000052352	103
35	11688	1.000052352	104
35	11825	1.000052592	103
35	11857	1.000052592	104
35	11906	1.000053296	105
35	11911	1.000053296	106
35	12048	1.000053536	105
35	12080	1.000053536	106
35	12129	1.00005424	107
35	12134	1.00005424	108
35	12271	1.00005448	107
35	12303	1.00005448	108
35	12352	1.000055184	109
35	12357	1.000055184	110
35	12494	1.000055424	109
35	12526	1.000055424	110
35	12575	1.000056128	111
35	12580	1.000056128	112
35	12715	1.000056368	111
35	12747	1.000056368	112
35	12796	1.000057072	113
35	12801	1.000057072	114
35	12938	1.000057312	113
35	12970	1.000057312	114
35	13019	1.000058016	115
35	13024	1.000058016	116
35	13161	1.000058256	115
35	13193	1.000058256	116
35	13242	1.00005896	117
35	13247	1.00005896	118
35	13384	1.0000592	117
35	13416	1.0000592	118
35	13465	1.000059904	119
35	13470	1.000059904	120
35	13607	1.000060144	119
35	13639	1.000060144	120
35	13688	1.000060848	121
35	13693	1.000060848	122
35	13830	1.000061088	121
35	13862	1.000061088	122
35	13911	1.000061792	123
35	13916	1.000061792	124
35	14051	1.000062032	123
35	14083	1.000062032	124
35	14132	1.000062736	125
35	14137	1.000062736	126
35	14274	1.000062976	125
35	14306	1.000062976	126
35	14355	1.00006368	127
35	14360	1.00006368	128
35	14497	1.00006392	127
35	14529	1.00006392	128
35	14578	1.000064624	129
35	14583	1.000064624	130
35	14720	1.000064864	129
35	14752	1.000064864	130
35	14801	1.000065568	131
35	14806	1.000065568	132
35	14945	1.000065808	131
35	14977	1.000065808	132
35	15026	1.000066512	133
35	15031	1.000066512	134
35	15168	1.000066752	133
35	15200	1.000066752	134
35	15249	1.000067456	135
35	15254	1.000067456	136
35	15391	1.000067696	135
35	15423	1.000067696	136
35	15472	1.0000684	137
35	15477	1.0000684	138
35	15614	1.00006864	137
35	15646	1.00006864	138
35	15695	1.000069344	139
35	15700	1.000069344	140
35	15835	1.000069584	139
35	15867	1.000069584	140
35	15916	1.000070288	141
35	15921	1.000070288	142
35	16056	1.000070528	141
35	16088	1.000070528	142
35	16137	1.000071232	143
35	16142	1.000071232	144
35	16279	1.000071472	143
35	16311	1.000071472	144
35	16360	1.000072176	145
35	16365	1.000072176	146
35	16502	1.000072416	145
35	16534	1.000072416	146
35	16583	1.00007312	147
35	16588	1.00007312	148
35	16725	1.00007336	147
35	16757	1.00007336	148
35	16806	1.000074064	149
35	16811	1.000074064	150
35	16948	1.000074304	149
35	16980	1.000074304	150
35	17029	1.000075008	151
35	17034	1.000075008	152
35	17171	1.000075248	151
35	17203	1.000075248	152
35	17252	1.000075952	153
35	17257	1.000075952	154
35	17392	1.000076192	153
35	17424	1.000076192	154
35	17473	1.000076896	155
35	17478	1.000076896	156
35	17615	1.000077136	155
35	17647	1.000077136	156
35	17696	1.00007784	157
35	17701	1.00007784	158
35	17840	1.00007808	157
35	17872	1.00007808	158
35	17921	1.000078784	159
35	17926	1.000078784	160
35	18065	1.000079024	159
35	18097	1.000079024	160
35	18146	1.000079728	161
35	18151	1.000079728	162
35	18288	1.000079968	161
35	18320	1.000079968	162
35	18369	1.000080672	163
35	18374	1.000080672	164
35	18511	1.000080912	163
35	18543	1.000080912	164
35	18592	1.000081616	165
35	18597	1.000081616	166
35	18734	1.000081856	165
35	18766	1.000081856	166
35	18815	1.00008256	167
35	18820	1.00008256	168
35	18957	1.0000828	167
35	18989	1.0000828	168
35	19038	1.000083504	169
35	19043	1.000083504	170
35	19182	1.000083744	169
35	19214	1.000083744	170
35	19272	1.000084448	171
35	19277	1.000084448	172
35	19416	1.000084688	171
35	19448	1.000084688	172
35	19497	1.000085392	173
35	19502	1.000085392	174
35	19639	1.000085632	173
35	19671	1.000085632	174
35	19720	1.000086336	175
35	19725	1.000086336	176
35	19862	1.000086576	175
35	19894	1.000086576	176
35	19943	1.00008728	177
35	19948	1.00008728	178
35	20083	1.00008752	177
35	20115	1.00008752	178
35	20164	1.000088224	179
35	20169	1.000088224	180
35	20306	1.000088464	179
35	20338	1.000088464	180
35	20387	1.000089168	181
35	20392	1.000089168	182
35	20529	1.000089408	181
35	20561	1.000089408	182
35	20610	1.000090112	183
35	20615	1.000090112	184
35	20752	1.000090352	183
35	20784	1.000090352	184
35	20833	1.000091056	185
35	20838	1.000091056	186
35	20977	1.000091296	185
35	21009	1.000091296	186
35	21058	1.000092	187
35	21063	1.000092	188
35	21200	1.00009224	187
35	21232	1.00009224	188
35	21281	1.000092944	189
35	21286	1.000092944	190
35	21421	1.000093184	189
35	21453	1.000093184	190
35	21502	1.000093888	191
35	21507	1.000093888	192
35	21644	1.000094128	191
35	21676	1.000094128	192
35	21725	1.000094832	193
35	21730	1.000094832	194
35	21865	1.000095072	193
35	21897	1.000095072	194
35	21946	1.000095776	195
35	21951	1.000095776	196
35	22088	1.000096016	195
35	22120	1.000096016	196
35	22169	1.00009672	197
35	22174	1.00009672	198
35	22311	1.00009696	197
35	22343	1.00009696	198
35	22392	1.000097664	199
35	22397	1.000097664	200
35	22534	1.000097904	199
35	22566	1.000097904	200
36	0	0	0
36	111	1.000001696	1
36	111	1.000001696	0
36	290	1.00000264	1
36	290	1.00000264	0
36	364	1.000003424	1
36	372	1.000003424	2
36	454	1.000003584	1
36	478	1.000003584	2
36	565	1.000004368	3
36	573	1.000004368	4
36	614	1.000005008	5
36	760	1.000005392	4
36	796	1.000005392	5
36	844	1.000006176	6
36	849	1.000006176	7
36	966	1.000006336	6
36	1002	1.000006336	7
36	1065	1.00000712	8
36	1070	1.00000712	9
36	1176	1.00000728	8
36	1208	1.00000728	9
36	1271	1.000008064	10
36	1276	1.000008064	11
36	1370	1.000008224	10
36	1402	1.000008224	11
36	1562	1.000009168	10
36	1594	1.000009168	11
36	1634	1.000009872	12
36	1639	1.000009872	13
36	1778	1.000010112	12
36	1802	1.000010112	13
36	1816	1.000010112	14
36	1875	1.000010816	15
36	1880	1.000010816	16
36	2019	1.000011056	15
36	2051	1.000011056	16
36	2091	1.00001176	17
36	2096	1.00001176	18
36	2235	1.000012	17
36	2267	1.000012	18
36	2316	1.000012704	19
36	2321	1.000012704	20
36	2460	1.000012944	19
36	2492	1.000012944	20
36	2541	1.000013648	21
36	2546	1.000013648	22
36	2683	1.000013888	21
36	2715	1.000013888	22
36	2764	1.000014592	23
36	2769	1.000014592	24
36	2904	1.000014832	23
36	2936	1.000014832	24
36	2985	1.000015536	25
36	2990	1.000015536	26
36	3125	1.000015776	25
36	3157	1.000015776	26
36	3206	1.00001648	27
36	3211	1.00001648	28
36	3346	1.00001672	27
36	3378	1.00001672	28
36	3427	1.000017424	29
36	3432	1.000017424	30
36	3569	1.000017664	29
36	3601	1.000017664	30
36	3650	1.000018368	31
36	3655	1.000018368	32
36	3792	1.000018608	31
36	3824	1.000018608	32
36	3873	1.000019312	33
36	3878	1.000019312	34
36	4017	1.000019552	33
36	4049	1.000019552	34
[...]
68	10704	1.000047872	46
68	10734	1.000047872	47
68	10830	1.000048656	48
68	10927	1.000048816	47
68	10957	1.000048816	48
68	11053	1.0000496	49
68	11152	1.00004976	48
68	11182	1.00004976	49
68	11278	1.000050544	50
68	11377	1.000050704	49
68	11407	1.000050704	50
68	11503	1.000051488	51
68	11600	1.000051648	50
68	11630	1.000051648	51
68	11726	1.000052432	52
68	11823	1.000052592	51
68	11853	1.000052592	52
68	11949	1.000053376	53
68	12046	1.000053536	52
68	12076	1.000053536	53
68	12172	1.00005432	54
68	12269	1.00005448	53
68	12299	1.00005448	54
68	12395	1.000055264	55
68	12492	1.000055424	54
68	12522	1.000055424	55
68	12618	1.000056208	56
68	12713	1.000056368	55
68	12743	1.000056368	56
68	12839	1.000057152	57
68	12936	1.000057312	56
68	12966	1.000057312	57
68	13062	1.000058096	58
68	13159	1.000058256	57
68	13189	1.000058256	58
68	13285	1.00005904	59
68	13382	1.0000592	58
68	13412	1.0000592	59
68	13508	1.000059984	60
68	13605	1.000060144	59
68	13635	1.000060144	60
68	13731	1.000060928	61
68	13828	1.000061088	60
68	13858	1.000061088	61
68	13954	1.000061872	62
68	14049	1.000062032	61
68	14079	1.000062032	62
68	14175	1.000062816	63
68	14272	1.000062976	62
68	14302	1.000062976	63
68	14398	1.00006376	64
68	14495	1.00006392	63
68	14525	1.00006392	64
68	14621	1.000064704	65
68	14718	1.000064864	64
68	14748	1.000064864	65
68	14844	1.000065648	66
68	14943	1.000065808	65
68	14973	1.000065808	66
68	15069	1.000066592	67
68	15166	1.000066752	66
68	15196	1.000066752	67
68	15292	1.000067536	68
68	15389	1.000067696	67
68	15419	1.000067696	68
68	15515	1.00006848	69
68	15612	1.00006864	68
68	15642	1.00006864	69
68	15738	1.000069424	70
68	15833	1.000069584	69
68	15863	1.000069584	70
68	15959	1.000070368	71
68	16054	1.000070528	70
68	16084	1.000070528	71
68	16180	1.000071312	72
68	16277	1.000071472	71
68	16307	1.000071472	72
68	16403	1.000072256	73
68	16500	1.000072416	72
68	16530	1.000072416	73
68	16626	1.0000732	74
68	16723	1.00007336	73
68	16753	1.00007336	74
68	16849	1.000074144	75
68	16946	1.000074304	74
68	16976	1.000074304	75
68	17072	1.000075088	76
68	17169	1.000075248	75
68	17199	1.000075248	76
68	17295	1.000076032	77
68	17390	1.000076192	76
68	17420	1.000076192	77
68	17516	1.000076976	78
68	17613	1.000077136	77
68	17643	1.000077136	78
68	17739	1.00007792	79
68	17838	1.00007808	78
68	17868	1.00007808	79
68	17964	1.000078864	80
68	18063	1.000079024	79
68	18093	1.000079024	80
68	18189	1.000079808	81
68	18286	1.000079968	80
68	18316	1.000079968	81
68	18412	1.000080752	82
68	18509	1.000080912	81
68	18539	1.000080912	82
68	18635	1.000081696	83
68	18732	1.000081856	82
68	18762	1.000081856	83
68	18858	1.00008264	84
68	18955	1.0000828	83
68	18985	1.0000828	84
68	19081	1.000083584	85
68	19180	1.000083744	84
68	19210	1.000083744	85
68	19315	1.000084528	86
68	19414	1.000084688	85
68	19444	1.000084688	86
68	19540	1.000085472	87
68	19637	1.000085632	86
68	19667	1.000085632	87
68	19763	1.000086416	88
68	19860	1.000086576	87
68	19890	1.000086576	88
68	19986	1.00008736	89
68	20081	1.00008752	88
68	20111	1.00008752	89
68	20207	1.000088304	90
68	20304	1.000088464	89
68	20334	1.000088464	90
68	20430	1.000089248	91
68	20527	1.000089408	90
68	20557	1.000089408	91
68	20653	1.000090192	92
68	20750	1.000090352	91
68	20780	1.000090352	92
68	20876	1.000091136	93
68	20975	1.000091296	92
68	21005	1.000091296	93
68	21101	1.00009208	94
68	21198	1.00009224	93
68	21228	1.00009224	94
68	21324	1.000093024	95
68	21419	1.000093184	94
68	21449	1.000093184	95
68	21545	1.000093968	96
68	21642	1.000094128	95
68	21672	1.000094128	96
68	21768	1.000094912	97
68	21863	1.000095072	96
68	21893	1.000095072	97
68	21989	1.000095856	98
68	22086	1.000096016	97
68	22116	1.000096016	98
68	22212	1.0000968	99
68	22309	1.00009696	98
68	22339	1.00009696	99
68	22435	1.000097744	100
68	22532	1.000097904	99
68	22562	1.000097904	100
69	0	0	0
69	107	1.000001696	1
69	107	1.000001696	0
69	153	1.000001712	1
69	263	1.00000264	0
69	286	1.00000264	1
69	368	1.000003424	2
69	474	1.000003584	3
69	569	1.000004368	4
69	584	1.000004448	3
69	738	1.000005312	4
69	767	1.000005392	3
69	792	1.000005392	4
69	973	1.000006336	3
69	998	1.000006336	4
69	1061	1.00000712	5
69	1182	1.00000728	4
69	1204	1.00000728	5
69	1267	1.000008064	6
69	1376	1.000008224	5
69	1398	1.000008224	6
69	1469	1.000009008	7
69	1568	1.000009168	6
69	1590	1.000009168	7
69	1677	1.000009952	8
69	1784	1.000010112	7
69	1812	1.000010112	8
69	1918	1.000010896	9
69	2025	1.000011056	8
69	2047	1.000011056	9
69	2134	1.00001184	10
69	2241	1.000012	9
69	2263	1.000012	10
69	2359	1.000012784	11
69	2466	1.000012944	10
69	2488	1.000012944	11
69	2584	1.000013728	12
69	2689	1.000013888	11
69	2711	1.000013888	12
69	2807	1.000014672	13
69	2910	1.000014832	12
69	2932	1.000014832	13
69	3028	1.000015616	14
69	3131	1.000015776	13
69	3153	1.000015776	14
69	3249	1.00001656	15
69	3352	1.00001672	14
69	3374	1.00001672	15
69	3470	1.000017504	16
69	3575	1.000017664	15
69	3597	1.000017664	16
69	3693	1.000018448	17
69	3798	1.000018608	16
69	3820	1.000018608	17
69	3916	1.000019392	18
69	4023	1.000019552	17
69	4045	1.000019552	18
69	4141	1.000020336	19
69	4248	1.000020496	18
69	4270	1.000020496	19
69	4366	1.00002128	20
69	4469	1.00002144	19
69	4491	1.00002144	20
69	4587	1.000022224	21
69	4694	1.000022384	20
69	4716	1.000022384	21
69	4812	1.000023168	22
69	4915	1.000023328	21
69	4937	1.000023328	22
69	5033	1.000024112	23
69	5138	1.000024272	22
69	5160	1.000024272	23
69	5256	1.000025056	24
69	5361	1.000025216	23
69	5383	1.000025216	24
69	5479	1.000026	25
69	5582	1.00002616	24
69	5604	1.00002616	25
69	5700	1.000026944	26
69	5807	1.000027104	25
69	5829	1.000027104	26
69	5925	1.000027888	27
69	6028	1.000028048	26
69	6050	1.000028048	27
69	6146	1.000028832	28
69	6251	1.000028992	27
69	6273	1.000028992	28
69	6369	1.000029776	29
69	6474	1.000029936	28
69	6496	1.000029936	29
69	6592	1.00003072	30
69	6697	1.00003088	29
69	6719	1.00003088	30
69	6815	1.000031664	31
69	6920	1.000031824	30
69	6942	1.000031824	31
69	7038	1.000032608	32
69	7145	1.000032768	31
69	7167	1.000032768	32
69	7263	1.000033552	33
69	7368	1.000033712	32
69	7390	1.000033712	33
69	7486	1.000034496	34
69	7591	1.000034656	33
69	7613	1.000034656	34
69	7709	1.00003544	35
69	7814	1.0000356	34
69	7836	1.0000356	35
69	7932	1.000036384	36
69	8037	1.000036544	35
69	8059	1.000036544	36
69	8155	1.000037328	37
69	8260	1.000037488	36
69	8282	1.000037488	37
69	8378	1.000038272	38
69	8481	1.000038432	37
69	8503	1.000038432	38
69	8599	1.000039216	39
69	8706	1.000039376	38
69	8728	1.000039376	39
69	8824	1.00004016	40
69	8927	1.00004032	39
69	8949	1.00004032	40
69	9045	1.000041104	41
69	9152	1.000041264	40
69	9174	1.000041264	41
69	9270	1.000042048	42
69	9375	1.000042208	41
69	9397	1.000042208	42
69	9493	1.000042992	43
69	9596	1.000043152	42
69	9618	1.000043152	43
69	9714	1.000043936	44
69	9819	1.000044096	43
69	9841	1.000044096	44
69	9937	1.00004488	45
69	10042	1.00004504	44
69	10064	1.00004504	45
69	10160	1.000045824	46
69	10265	1.000045984	45
69	10287	1.000045984	46
69	10383	1.000046768	47
69	10488	1.000046928	46
69	10510	1.000046928	47
69	10606	1.000047712	48
69	10713	1.000047872	47
69	10735	1.000047872	48
69	10831	1.000048656	49
69	10936	1.000048816	48
69	10958	1.000048816	49
69	11054	1.0000496	50
69	11161	1.00004976	49
69	11183	1.00004976	50
69	11279	1.000050544	51
69	11386	1.000050704	50
69	11408	1.000050704	51
69	11504	1.000051488	52
69	11609	1.000051648	51
69	11631	1.000051648	52
69	11727	1.000052432	53
69	11832	1.000052592	52
69	11854	1.000052592	53
69	11950	1.000053376	54
69	12055	1.000053536	53
69	12077	1.000053536	54
69	12173	1.00005432	55
69	12278	1.00005448	54
69	12300	1.00005448	55
69	12396	1.000055264	56
69	12501	1.000055424	55
69	12523	1.000055424	56
69	12619	1.000056208	57
69	12722	1.000056368	56
69	12744	1.000056368	57
69	12840	1.000057152	58
69	12945	1.000057312	57
69	12967	1.000057312	58
69	13063	1.000058096	59
69	13168	1.000058256	58
69	13190	1.000058256	59
69	13286	1.00005904	60
69	13391	1.0000592	59
69	13413	1.0000592	60
69	13509	1.000059984	61
69	13614	1.000060144	60
69	13636	1.000060144	61
69	13732	1.000060928	62
69	13837	1.000061088	61
69	13859	1.000061088	62
69	13955	1.000061872	63
69	14058	1.000062032	62
69	14080	1.000062032	63
69	14176	1.000062816	64
69	14281	1.000062976	63
69	14303	1.000062976	64
69	14399	1.00006376	65
69	14504	1.00006392	64
69	14526	1.00006392	65
69	14622	1.000064704	66
69	14727	1.000064864	65
69	14749	1.000064864	66
69	14845	1.000065648	67
69	14952	1.000065808	66
69	14974	1.000065808	67
69	15070	1.000066592	68
69	15175	1.000066752	67
69	15197	1.000066752	68
69	15293	1.000067536	69
69	15398	1.000067696	68
69	15420	1.000067696	69
69	15516	1.00006848	70
69	15621	1.00006864	69
69	15643	1.00006864	70
69	15739	1.000069424	71
69	15842	1.000069584	70
69	15864	1.000069584	71
69	15960	1.000070368	72
69	16063	1.000070528	71
69	16085	1.000070528	72
69	16181	1.000071312	73
69	16286	1.000071472	72
69	16308	1.000071472	73
69	16404	1.000072256	74
69	16509	1.000072416	73
69	16531	1.000072416	74
69	16627	1.0000732	75
69	16732	1.00007336	74
69	16754	1.00007336	75
69	16850	1.000074144	76
69	16955	1.000074304	75
69	16977	1.000074304	76
69	17073	1.000075088	77
69	17178	1.000075248	76
69	17200	1.000075248	77
69	17296	1.000076032	78
69	17399	1.000076192	77
69	17421	1.000076192	78
69	17517	1.000076976	79
69	17622	1.000077136	78
69	17644	1.000077136	79
69	17740	1.00007792	80
69	17847	1.00007808	79
69	17869	1.00007808	80
69	17965	1.000078864	81
69	18072	1.000079024	80
69	18094	1.000079024	81
69	18190	1.000079808	82
69	18295	1.000079968	81
69	18317	1.000079968	82
69	18413	1.000080752	83
69	18518	1.000080912	82
69	18540	1.000080912	83
69	18636	1.000081696	84
69	18741	1.000081856	83
69	18763	1.000081856	84
69	18859	1.00008264	85
69	18964	1.0000828	84
69	18986	1.0000828	85
69	19082	1.000083584	86
69	19189	1.000083744	85
69	19211	1.000083744	86
69	19316	1.000084528	87
69	19423	1.000084688	86
69	19445	1.000084688	87
69	19541	1.000085472	88
69	19646	1.000085632	87
69	19668	1.000085632	88
69	19764	1.000086416	89
69	19869	1.000086576	88
69	19891	1.000086576	89
69	19987	1.00008736	90
69	20090	1.00008752	89
69	20112	1.00008752	90
69	20208	1.000088304	91
69	20313	1.000088464	90
69	20335	1.000088464	91
69	20431	1.000089248	92
69	20536	1.000089408	91
69	20558	1.000089408	92
69	20654	1.000090192	93
69	20759	1.000090352	92
69	20781	1.000090352	93
69	20877	1.000091136	94
69	20984	1.000091296	93
69	21006	1.000091296	94
69	21102	1.00009208	95
69	21207	1.00009224	94
69	21229	1.00009224	95
69	21325	1.000093024	96
69	21428	1.000093184	95
69	21450	1.000093184	96
69	21546	1.000093968	97
69	21651	1.000094128	96
69	21673	1.000094128	97
69	21769	1.000094912	98
69	21872	1.000095072	97
69	21894	1.000095072	98
69	21990	1.000095856	99
69	22095	1.000096016	98
69	22117	1.000096016	99
69	22213	1.0000968	100
69	22318	1.00009696	99
69	22340	1.00009696	100
69	22436	1.000097744	101
69	22541	1.000097904	100
69	22563	1.000097904	101
70	0	0	0
70	154	1.000001712	1
70	154	1.000001712	0
70	369	1.000003424	1
70	430	1.00000352	0
70	570	1.000004368	1
70	739	1.000005312	2
70	741	1.000005328	1
70	945	1.000006272	0
70	1062	1.00000712	1
70	1153	1.000007216	0
70	1268	1.000008064	1
70	1470	1.000009008	2
70	1472	1.000009024	1
70	1678	1.000009952	2
70	1682	1.000009968	1
70	1919	1.000010896	2
70	1923	1.000010912	1
70	2135	1.00001184	2
70	2139	1.000011856	1
70	2360	1.000012784	2
70	2364	1.0000128	1
70	2585	1.000013728	2
70	2589	1.000013744	1
70	2808	1.000014672	2
70	2812	1.000014688	1
70	3029	1.000015616	2
70	3033	1.000015632	1
70	3250	1.00001656	2
70	3254	1.000016576	1
70	3471	1.000017504	2
70	3475	1.00001752	1
70	3694	1.000018448	2
70	3698	1.000018464	1
70	3917	1.000019392	2
70	3921	1.000019408	1
70	4142	1.000020336	2
70	4146	1.000020352	1
70	4367	1.00002128	2
70	4371	1.000021296	1
70	4588	1.000022224	2
70	4592	1.00002224	1
70	4813	1.000023168	2
70	4817	1.000023184	1
70	5034	1.000024112	2
70	5038	1.000024128	1
70	5257	1.000025056	2
70	5261	1.000025072	1
70	5480	1.000026	2
70	5484	1.000026016	1
70	5701	1.000026944	2
70	5705	1.00002696	1
70	5926	1.000027888	2
70	5930	1.000027904	1
70	6147	1.000028832	2
70	6151	1.000028848	1
70	6370	1.000029776	2
70	6374	1.000029792	1
70	6593	1.00003072	2
70	6597	1.000030736	1
70	6816	1.000031664	2
70	6820	1.00003168	1
70	7039	1.000032608	2
70	7043	1.000032624	1
70	7264	1.000033552	2
70	7268	1.000033568	1
70	7487	1.000034496	2
70	7491	1.000034512	1
70	7710	1.00003544	2
70	7714	1.000035456	1
70	7933	1.000036384	2
70	7937	1.0000364	1
70	8156	1.000037328	2
70	8160	1.000037344	1
70	8379	1.000038272	2
70	8383	1.000038288	1
70	8600	1.000039216	2
70	8604	1.000039232	1
70	8825	1.00004016	2
70	8829	1.000040176	1
70	9046	1.000041104	2
70	9050	1.00004112	1
70	9271	1.000042048	2
70	9275	1.000042064	1
70	9494	1.000042992	2
70	9498	1.000043008	1
70	9715	1.000043936	2
70	9719	1.000043952	1
70	9938	1.00004488	2
70	9942	1.000044896	1
70	10161	1.000045824	2
70	10165	1.00004584	1
70	10384	1.000046768	2
70	10388	1.000046784	1
70	10607	1.000047712	2
70	10611	1.000047728	1
70	10832	1.000048656	2
70	10836	1.000048672	1
70	11055	1.0000496	2
70	11059	1.000049616	1
70	11280	1.000050544	2
70	11284	1.00005056	1
70	11505	1.000051488	2
70	11509	1.000051504	1
70	11728	1.000052432	2
70	11732	1.000052448	1
70	11951	1.000053376	2
70	11955	1.000053392	1
70	12174	1.00005432	2
70	12178	1.000054336	1
70	12397	1.000055264	2
70	12401	1.00005528	1
70	12620	1.000056208	2
70	12624	1.000056224	1
70	12841	1.000057152	2
70	12845	1.000057168	1
70	13064	1.000058096	2
70	13068	1.000058112	1
70	13287	1.00005904	2
70	13291	1.000059056	1
70	13510	1.000059984	2
70	13514	1.00006	1
70	13733	1.000060928	2
70	13737	1.000060944	1
70	13956	1.000061872	2
70	13960	1.000061888	1
70	14177	1.000062816	2
70	14181	1.000062832	1
70	14400	1.00006376	2
70	14404	1.000063776	1
70	14623	1.000064704	2
70	14627	1.00006472	1
70	14846	1.000065648	2
70	14850	1.000065664	1
70	15071	1.000066592	2
70	15075	1.000066608	1
70	15294	1.000067536	2
70	15298	1.000067552	1
70	15517	1.00006848	2
70	15521	1.000068496	1
70	15740	1.000069424	2
70	15744	1.00006944	1
70	15961	1.000070368	2
70	15965	1.000070384	1
70	16182	1.000071312	2
70	16186	1.000071328	1
70	16405	1.000072256	2
70	16409	1.000072272	1
70	16628	1.0000732	2
70	16632	1.000073216	1
70	16851	1.000074144	2
70	16855	1.00007416	1
70	17074	1.000075088	2
70	17078	1.000075104	1
70	17297	1.000076032	2
70	17301	1.000076048	1
70	17518	1.000076976	2
70	17522	1.000076992	1
70	17741	1.00007792	2
70	17745	1.000077936	1
70	17966	1.000078864	2
70	17970	1.00007888	1
70	18191	1.000079808	2
70	18195	1.000079824	1
70	18414	1.000080752	2
70	18418	1.000080768	1
70	18637	1.000081696	2
70	18641	1.000081712	1
70	18860	1.00008264	2
70	18864	1.000082656	1
70	19083	1.000083584	2
70	19087	1.0000836	1
70	19317	1.000084528	2
70	19321	1.000084544	1
70	19542	1.000085472	2
70	19546	1.000085488	1
70	19765	1.000086416	2
70	19769	1.000086432	1
70	19988	1.00008736	2
70	19992	1.000087376	1
70	20209	1.000088304	2
70	20213	1.00008832	1
70	20432	1.000089248	2
70	20436	1.000089264	1
70	20655	1.000090192	2
70	20659	1.000090208	1
70	20878	1.000091136	2
70	20882	1.000091152	1
70	21103	1.00009208	2
70	21107	1.000092096	1
70	21326	1.000093024	2
70	21330	1.00009304	1
70	21547	1.000093968	2
70	21551	1.000093984	1
70	21770	1.000094912	2
70	21774	1.000094928	1
70	21991	1.000095856	2
70	21995	1.000095872	1
70	22214	1.0000968	2
70	22218	1.000096816	1
70	22437	1.000097744	2
70	22441	1.00009776	1
71	0	0	0
71	108	1.000001696	1
71	108	1.000001696	0
71	155	1.000001712	1
71	264	1.00000264	0
71	287	1.00000264	1
71	475	1.000003584	2
71	585	1.000004448	1
71	768	1.000005392	0
71	793	1.000005392	1
71	974	1.000006336	0
71	999	1.000006336	1
71	1205	1.00000728	2
71	1338	1.000008144	1
71	1399	1.000008224	2
71	1534	1.000009088	1
71	1591	1.000009168	2
71	1748	1.000010032	1
71	1813	1.000010112	2
71	1989	1.000010976	1
71	2048	1.000011056	2
71	2205	1.00001192	1
71	2264	1.000012	2
71	2430	1.000012864	1
71	2489	1.000012944	2
71	2655	1.000013808	1
71	2712	1.000013888	2
71	2876	1.000014752	1
71	2933	1.000014832	2
71	3097	1.000015696	1
71	3154	1.000015776	2
71	3318	1.00001664	1
71	3375	1.00001672	2
71	3541	1.000017584	1
71	3598	1.000017664	2
71	3764	1.000018528	1
71	3821	1.000018608	2
71	3987	1.000019472	1
71	4046	1.000019552	2
71	4212	1.000020416	1
71	4271	1.000020496	2
71	4435	1.00002136	1
71	4492	1.00002144	2
71	4658	1.000022304	1
71	4717	1.000022384	2
71	4881	1.000023248	1
71	4938	1.000023328	2
71	5102	1.000024192	1
71	5161	1.000024272	2
71	5325	1.000025136	1
71	5384	1.000025216	2
71	5548	1.00002608	1
71	5605	1.00002616	2
71	5771	1.000027024	1
71	5830	1.000027104	2
71	5994	1.000027968	1
71	6051	1.000028048	2
71	6215	1.000028912	1
71	6274	1.000028992	2
71	6440	1.000029856	1
71	6497	1.000029936	2
71	6663	1.0000308	1
71	6720	1.00003088	2
71	6886	1.000031744	1
71	6943	1.000031824	2
71	7109	1.000032688	1
71	7168	1.000032768	2
71	7334	1.000033632	1
71	7391	1.000033712	2
71	7557	1.000034576	1
71	7614	1.000034656	2
71	7780	1.00003552	1
71	7837	1.0000356	2
71	8003	1.000036464	1
71	8060	1.000036544	2
71	8226	1.000037408	1
71	8283	1.000037488	2
71	8447	1.000038352	1
71	8504	1.000038432	2
71	8670	1.000039296	1
71	8729	1.000039376	2
71	8893	1.00004024	1
71	8950	1.00004032	2
71	9116	1.000041184	1
71	9175	1.000041264	2
71	9339	1.000042128	1
71	9398	1.000042208	2
71	9562	1.000043072	1
71	9619	1.000043152	2
71	9783	1.000044016	1
71	9842	1.000044096	2
71	10006	1.00004496	1
71	10065	1.00004504	2
71	10229	1.000045904	1
71	10288	1.000045984	2
71	10454	1.000046848	1
71	10511	1.000046928	2
71	10677	1.000047792	1
71	10736	1.000047872	2
71	10900	1.000048736	1
71	10959	1.000048816	2
71	11125	1.00004968	1
71	11184	1.00004976	2
71	11350	1.000050624	1
71	11409	1.000050704	2
71	11575	1.000051568	1
71	11632	1.000051648	2
71	11796	1.000052512	1
71	11855	1.000052592	2
71	12021	1.000053456	1
71	12078	1.000053536	2
71	12242	1.0000544	1
71	12301	1.00005448	2
71	12467	1.000055344	1
71	12524	1.000055424	2
71	12688	1.000056288	1
71	12745	1.000056368	2
71	12911	1.000057232	1
71	12968	1.000057312	2
71	13132	1.000058176	1
71	13191	1.000058256	2
71	13357	1.00005912	1
71	13414	1.0000592	2
71	13580	1.000060064	1
71	13637	1.000060144	2
71	13803	1.000061008	1
71	13860	1.000061088	2
71	14024	1.000061952	1
71	14081	1.000062032	2
71	14247	1.000062896	1
71	14304	1.000062976	2
71	14470	1.00006384	1
71	14527	1.00006392	2
71	14693	1.000064784	1
71	14750	1.000064864	2
71	14916	1.000065728	1
71	14975	1.000065808	2
71	15141	1.000066672	1
71	15198	1.000066752	2
71	15364	1.000067616	1
71	15421	1.000067696	2
71	15587	1.00006856	1
71	15644	1.00006864	2
71	15808	1.000069504	1
71	15865	1.000069584	2
71	16029	1.000070448	1
71	16086	1.000070528	2
71	16252	1.000071392	1
71	16309	1.000071472	2
71	16475	1.000072336	1
71	16532	1.000072416	2
71	16698	1.00007328	1
71	16755	1.00007336	2
71	16919	1.000074224	1
71	16978	1.000074304	2
71	17144	1.000075168	1
71	17201	1.000075248	2
71	17365	1.000076112	1
71	17422	1.000076192	2
71	17588	1.000077056	1
71	17645	1.000077136	2
71	17811	1.000078	1
71	17870	1.00007808	2
71	18036	1.000078944	1
71	18095	1.000079024	2
71	18259	1.000079888	1
71	18318	1.000079968	2
71	18484	1.000080832	1
71	18541	1.000080912	2
71	18707	1.000081776	1
71	18764	1.000081856	2
71	18928	1.00008272	1
71	18987	1.0000828	2
71	19153	1.000083664	1
71	19212	1.000083744	2
71	19387	1.000084608	1
71	19446	1.000084688	2
71	19612	1.000085552	1
71	19669	1.000085632	2
71	19833	1.000086496	1
71	19892	1.000086576	2
71	20056	1.00008744	1
71	20113	1.00008752	2
71	20277	1.000088384	1
71	20336	1.000088464	2
71	20502	1.000089328	1
71	20559	1.000089408	2
71	20723	1.000090272	1
71	20782	1.000090352	2
71	20948	1.000091216	1
71	21007	1.000091296	2
71	21171	1.00009216	1
71	21230	1.00009224	2
71	21394	1.000093104	1
71	21451	1.000093184	2
71	21615	1.000094048	1
71	21674	1.000094128	2
71	21838	1.000094992	1
71	21895	1.000095072	2
71	22059	1.000095936	1
71	22118	1.000096016	2
71	22282	1.00009688	1
71	22341	1.00009696	2
71	22505	1.000097824	1
71	22564	1.000097904	2
72	0	0	0
73	0	0	0
73	65	1	1
73	65	1	0

